@<TRIPOS>MOLECULE
*****
   15    15     0     0     0
SMALL
NO_CHARGES

@<TRIPOS>ATOM
      1 C1          0.2265   -0.4197    0.9733 C.ar      1 <0>         0.0000
      2 C2          1.6520   -0.6227    2.8997 C.ar      1 <0>         0.0000
      3 C3         -0.6317   -1.3224    1.5803 C.ar      1 <0>         0.0000
      4 C4          1.3879   -0.0684    1.6522 C.ar      1 <0>         0.0000
      5 C5          0.7299   -1.5161    3.4206 C.ar      1 <0>         0.0000
      6 N1         -0.4092   -1.8816    2.7908 N.ar      1 <0>         0.0000
      7 N2          1.0133   -2.0731    4.6927 N.pl3     1 <0>         0.0000
      8 N3          2.3004    0.8521    1.0733 N.pl3     1 <0>         0.0000
      9 O1          2.0408    1.3389   -0.0540 O.3       1 <0>         0.0000
     10 O2          3.3425    1.1542    1.7042 O.2       1 <0>         0.0000
     11 H1         -0.0124   -0.0072   -0.0016 H         1 <0>         0.0000
     12 H2          2.5538   -0.3630    3.4473 H         1 <0>         0.0000
     13 H3         -1.5515   -1.6286    1.0926 H         1 <0>         0.0000
     14 H4          1.8747   -1.8424    5.1377 H         1 <0>         0.0000
     15 H5          0.3903   -2.7538    5.0691 H         1 <0>         0.0000
@<TRIPOS>BOND
     1    1    3 ar
     2    1    4 ar
     3    1   11 1
     4    2    4 ar
     5    2    5 ar
     6    2   12 1
     7    3    6 ar
     8    3   13 1
     9    4    8 1
    10    5    6 ar
    11    5    7 1
    12    7   14 1
    13    7   15 1
    14    8    9 1
    15    8   10 2
