@<TRIPOS>MOLECULE
*****
   22    22     0     0     0
SMALL
NO_CHARGES

@<TRIPOS>ATOM
      1 C1          1.3879   -0.0684    1.6522 C.ar      1 <0>         0.0000
      2 C2         -0.6317   -1.3224    1.5803 C.ar      1 <0>         0.0000
      3 C3          0.7299   -1.5161    3.4206 C.ar      1 <0>         0.0000
      4 C4          0.2265   -0.4197    0.9733 C.ar      1 <0>         0.0000
      5 C5          1.6520   -0.6227    2.8997 C.ar      1 <0>         0.0000
      6 C6         -1.1834   -0.1218   -1.0955 C.2       1 <0>         0.0000
      7 C7          3.8878   -1.1210    3.3242 C.2       1 <0>         0.0000
      8 N1         -0.4092   -1.8816    2.7908 N.ar      1 <0>         0.0000
      9 N2         -1.1222    0.6046   -2.2771 N.am      1 <0>         0.0000
     10 N3          4.9867   -0.7334    4.0516 N.am      1 <0>         0.0000
     11 N4         -0.0656    0.1198   -0.2771 N.am      1 <0>         0.0000
     12 O1         -2.1260   -0.8699   -0.8490 O.2       1 <0>         0.0000
     13 O2          3.8766   -2.0684    2.5443 O.2       1 <0>         0.0000
     14 O3          2.7760   -0.2977    3.5850 O.3       1 <0>         0.0000
     15 H1          2.0894    0.6365    1.2132 H         1 <0>         0.0000
     16 H2         -1.5534   -1.6359    1.0988 H         1 <0>         0.0000
     17 H3          0.8854   -1.9798    4.3898 H         1 <0>         0.0000
     18 H4         -1.8746    0.5138   -2.9515 H         1 <0>         0.0000
     19 H5         -0.3458    1.2235   -2.4846 H         1 <0>         0.0000
     20 H6          5.8702   -1.2265    3.9773 H         1 <0>         0.0000
     21 H7          4.9487    0.0578    4.6853 H         1 <0>         0.0000
     22 H8          0.6136    0.7831   -0.6674 H         1 <0>         0.0000
@<TRIPOS>BOND
     1    1    4 ar
     2    1    5 ar
     3    1   15 1
     4    2    4 ar
     5    2    8 ar
     6    2   16 1
     7    3    5 ar
     8    3    8 ar
     9    3   17 1
    10    4   11 1
    11    5   14 1
    12    6    9 am
    13    6   11 am
    14    6   12 2
    15    7   10 am
    16    7   13 2
    17    7   14 1
    18    9   18 1
    19    9   19 1
    20   10   20 1
    21   10   21 1
    22   11   22 1
