@<TRIPOS>MOLECULE
*****
   25    25     0     0     0
SMALL
NO_CHARGES

@<TRIPOS>ATOM
      1 C1          6.3617    1.0509   -1.7316 C.ar      1 <0>         0.0000
      2 C2          5.7832   -1.2814   -1.6314 C.ar      1 <0>         0.0000
      3 C3          7.5830    0.6697   -2.2634 C.ar      1 <0>         0.0000
      4 C4          5.4502    0.0507   -1.4123 C.ar      1 <0>         0.0000
      5 C5          7.0303   -1.5582   -2.1679 C.ar      1 <0>         0.0000
      6 C6          3.1585   -0.4801   -0.4942 C.2       1 <0>         0.0000
      7 C7          1.2212   -0.7481    1.0842 C.3       1 <0>         0.0000
      8 C8          2.6166    1.2883    1.2126 C.3       1 <0>         0.0000
      9 N1          7.9421   -0.6136   -2.4906 N.ar      1 <0>         0.0000
     10 N2          4.1859    0.3893   -0.8691 N.am      1 <0>         0.0000
     11 N3          2.3574    0.0034    0.5664 N.am      1 <0>         0.0000
     12 N4          7.3221   -2.9428   -2.3741 N.pl3     1 <0>         0.0000
     13 O1          6.4557   -3.7891   -2.0649 O.3       1 <0>         0.0000
     14 O2          2.9347   -1.5651   -1.0353 O.2       1 <0>         0.0000
     15 O3          8.4328   -3.2547   -2.8554 O.2       1 <0>         0.0000
     16 H1          6.1344    2.0999   -1.5735 H         1 <0>         0.0000
     17 H2          5.0803   -2.0735   -1.3883 H         1 <0>         0.0000
     18 H3          8.3287    1.4116   -2.5295 H         1 <0>         0.0000
     19 H4          1.5442   -1.4066    1.8948 H         1 <0>         0.0000
     20 H5          0.7779   -1.3571    0.2916 H         1 <0>         0.0000
     21 H6          0.4593   -0.0645    1.4685 H         1 <0>         0.0000
     22 H7          2.0673    2.0834    0.7016 H         1 <0>         0.0000
     23 H8          3.6845    1.5202    1.1781 H         1 <0>         0.0000
     24 H9          2.2984    1.2566    2.2581 H         1 <0>         0.0000
     25 H10         4.0056    1.3793   -0.7370 H         1 <0>         0.0000
@<TRIPOS>BOND
     1    1    3 ar
     2    1    4 ar
     3    1   16 1
     4    2    4 ar
     5    2    5 ar
     6    2   17 1
     7    3    9 ar
     8    3   18 1
     9    4   10 1
    10    5    9 ar
    11    5   12 1
    12    6   10 am
    13    6   11 am
    14    6   14 2
    15    7   11 1
    16    7   19 1
    17    7   20 1
    18    7   21 1
    19    8   11 1
    20    8   22 1
    21    8   23 1
    22    8   24 1
    23   10   25 1
    24   12   13 1
    25   12   15 2
