@<TRIPOS>MOLECULE
*****
   29    29     0     0     0
SMALL
NO_CHARGES

@<TRIPOS>ATOM
      1 C1         -4.5509   -5.0987   -5.1901 C.ar      1 <0>         0.0000
      2 C2         -2.9868   -3.2741   -5.2839 C.ar      1 <0>         0.0000
      3 C3         -4.5357   -4.9699   -3.8106 C.ar      1 <0>         0.0000
      4 C4         -3.7588   -4.2308   -5.9335 C.ar      1 <0>         0.0000
      5 C5         -3.0418   -3.2268   -3.9003 C.ar      1 <0>         0.0000
      6 C6         -1.4079   -1.3116   -3.8349 C.2       1 <0>         0.0000
      7 C7          0.2147    0.5704   -3.3543 C.3       1 <0>         0.0000
      8 C8         -3.1029   -3.8008   -9.6058 C.3       1 <0>         0.0000
      9 C9         -0.7440   -0.4515   -2.7699 C.3       1 <0>         0.0000
     10 C10        -2.9477   -3.4585   -8.1631 C.3       1 <0>         0.0000
     11 N1         -3.7990   -4.0530   -3.1441 N.ar      1 <0>         0.0000
     12 N2         -3.7396   -4.3200   -7.3402 N.pl3     1 <0>         0.0000
     13 N3         -2.2508   -2.2512   -3.2482 N.am      1 <0>         0.0000
     14 O1         -1.1897   -1.1496   -5.0310 O.2       1 <0>         0.0000
     15 H1         -5.1646   -5.8564   -5.6656 H         1 <0>         0.0000
     16 H2         -2.3618   -2.5870   -5.8471 H         1 <0>         0.0000
     17 H3         -5.1338   -5.6241   -3.1850 H         1 <0>         0.0000
     18 H4          1.0090    0.0815   -3.9279 H         1 <0>         0.0000
     19 H5          0.6805    1.1562   -2.5558 H         1 <0>         0.0000
     20 H6         -0.3075    1.2607   -4.0250 H         1 <0>         0.0000
     21 H7         -2.7820   -4.8300   -9.8000 H         1 <0>         0.0000
     22 H8         -4.1437   -3.6807   -9.9257 H         1 <0>         0.0000
     23 H9         -2.4821   -3.1328  -10.2149 H         1 <0>         0.0000
     24 H10        -1.5268    0.0646   -2.2022 H         1 <0>         0.0000
     25 H11        -0.2019   -1.1088   -2.0803 H         1 <0>         0.0000
     26 H12        -3.2698   -2.4297   -7.9764 H         1 <0>         0.0000
     27 H13        -1.9050   -3.5638   -7.8493 H         1 <0>         0.0000
     28 H14        -4.3158   -5.0257   -7.7594 H         1 <0>         0.0000
     29 H15        -2.3153   -2.2470   -2.2323 H         1 <0>         0.0000
@<TRIPOS>BOND
     1    1    3 ar
     2    1    4 ar
     3    1   15 1
     4    2    4 ar
     5    2    5 ar
     6    2   16 1
     7    3   11 ar
     8    3   17 1
     9    4   12 1
    10    5   11 ar
    11    5   13 1
    12    6    9 1
    13    6   13 am
    14    6   14 2
    15    7    9 1
    16    7   18 1
    17    7   19 1
    18    7   20 1
    19    8   10 1
    20    8   21 1
    21    8   22 1
    22    8   23 1
    23    9   24 1
    24    9   25 1
    25   10   12 1
    26   10   26 1
    27   10   27 1
    28   12   28 1
    29   13   29 1
