@<TRIPOS>MOLECULE
*****
   27    27     0     0     0
SMALL
NO_CHARGES

@<TRIPOS>ATOM
      1 C1          0.2265   -0.4197    0.9733 C.ar      1 <0>         0.0000
      2 C2          1.6520   -0.6227    2.8997 C.ar      1 <0>         0.0000
      3 C3         -0.6317   -1.3224    1.5803 C.ar      1 <0>         0.0000
      4 C4          1.3879   -0.0684    1.6522 C.ar      1 <0>         0.0000
      5 C5          0.7299   -1.5161    3.4206 C.ar      1 <0>         0.0000
      6 C6          3.5029    1.3121    1.6117 C.2       1 <0>         0.0000
      7 C7          0.4335   -3.5097    6.4865 C.3       1 <0>         0.0000
      8 C8          5.3709    2.8607    1.0103 C.3       1 <0>         0.0000
      9 C9         -0.0095   -2.9877    5.1363 C.3       1 <0>         0.0000
     10 N1         -0.4092   -1.8816    2.7908 N.ar      1 <0>         0.0000
     11 N2          2.2846    0.8370    1.0849 N.am      1 <0>         0.0000
     12 N3          4.1095    2.2138    0.7312 N.am      1 <0>         0.0000
     13 O1          3.9933    0.9968    2.6932 O.2       1 <0>         0.0000
     14 O2          0.9685   -2.0774    4.6478 O.3       1 <0>         0.0000
     15 H1         -0.0098   -0.0064   -0.0016 H         1 <0>         0.0000
     16 H2          2.5507   -0.3662    3.4518 H         1 <0>         0.0000
     17 H3         -1.5498   -1.6312    1.0918 H         1 <0>         0.0000
     18 H4          1.3898   -4.0341    6.4075 H         1 <0>         0.0000
     19 H5          0.5391   -2.6879    7.2023 H         1 <0>         0.0000
     20 H6         -0.3132   -4.1966    6.8985 H         1 <0>         0.0000
     21 H7          5.2011    3.8048    1.5344 H         1 <0>         0.0000
     22 H8          5.9043    3.0666    0.0783 H         1 <0>         0.0000
     23 H9          5.9950    2.2177    1.6367 H         1 <0>         0.0000
     24 H10        -0.9664   -2.4643    5.2223 H         1 <0>         0.0000
     25 H11        -0.1137   -3.8099    4.4221 H         1 <0>         0.0000
     26 H12         2.0381    1.2142    0.1636 H         1 <0>         0.0000
     27 H13         3.6416    2.4235   -0.1449 H         1 <0>         0.0000
@<TRIPOS>BOND
     1    1    3 ar
     2    1    4 ar
     3    1   15 1
     4    2    4 ar
     5    2    5 ar
     6    2   16 1
     7    3   10 ar
     8    3   17 1
     9    4   11 1
    10    5   10 ar
    11    5   14 1
    12    6   11 am
    13    6   12 am
    14    6   13 2
    15    7    9 1
    16    7   18 1
    17    7   19 1
    18    7   20 1
    19    8   12 1
    20    8   21 1
    21    8   22 1
    22    8   23 1
    23    9   14 1
    24    9   24 1
    25    9   25 1
    26   11   26 1
    27   12   27 1
