@<TRIPOS>MOLECULE
*****
   32    32     0     0     0
SMALL
NO_CHARGES

@<TRIPOS>ATOM
      1 C1         -2.6656   -1.9940    1.5045 C.ar      1 <0>         0.0000
      2 C2         -1.8338   -2.8933    3.5432 C.ar      1 <0>         0.0000
      3 C3         -1.1942   -0.7761    2.9215 C.ar      1 <0>         0.0000
      4 C4         -2.6145   -3.0488    2.4090 C.ar      1 <0>         0.0000
      5 C5         -1.9447   -0.8324    1.7581 C.ar      1 <0>         0.0000
      6 C6         -3.3900   -5.3826    2.9855 C.2       1 <0>         0.0000
      7 C7         -4.4700   -7.6369    3.0099 C.3       1 <0>         0.0000
      8 C8         -3.4196    0.8318    0.6496 C.3       1 <0>         0.0000
      9 C9         -1.4348   -0.1159   -0.5661 C.3       1 <0>         0.0000
     10 C10        -1.1247    1.5182    1.2629 C.3       1 <0>         0.0000
     11 N1         -1.1198   -1.7801    3.8237 N.ar      1 <0>         0.0000
     12 N2         -3.3264   -4.2241    2.1824 N.am      1 <0>         0.0000
     13 N3         -4.2193   -6.3484    2.4062 N.am      1 <0>         0.0000
     14 N4         -1.9788    0.3467    0.7827 N.4       1 <0>         0.0000
     15 O1         -2.8078   -5.5512    4.0542 O.2       1 <0>         0.0000
     16 H1         -3.2662   -2.0762    0.6013 H         1 <0>         0.0000
     17 H2         -1.7534   -3.6818    4.2855 H         1 <0>         0.0000
     18 H3         -0.6121    0.1051    3.1740 H         1 <0>         0.0000
     19 H4         -3.7294   -8.3635    2.6658 H         1 <0>         0.0000
     20 H5         -5.4667   -7.9944    2.7373 H         1 <0>         0.0000
     21 H6         -4.4102   -7.5622    4.0990 H         1 <0>         0.0000
     22 H7         -3.4262    1.6712   -0.0481 H         1 <0>         0.0000
     23 H8         -4.0181    0.0013    0.2705 H         1 <0>         0.0000
     24 H9         -3.7605    1.1416    1.6394 H         1 <0>         0.0000
     25 H10        -1.4661    0.7355   -1.2485 H         1 <0>         0.0000
     26 H11        -0.4098   -0.4589   -0.4130 H         1 <0>         0.0000
     27 H12        -2.0714   -0.9280   -0.9223 H         1 <0>         0.0000
     28 H13        -1.2003    2.3136    0.5192 H         1 <0>         0.0000
     29 H14        -1.5172    1.8445    2.2279 H         1 <0>         0.0000
     30 H15        -0.0959    1.1653    1.3567 H         1 <0>         0.0000
     31 H16        -3.8842   -4.2691    1.3218 H         1 <0>         0.0000
     32 H17        -4.6660   -6.1341    1.5202 H         1 <0>         0.0000
@<TRIPOS>BOND
     1    1    4 ar
     2    1    5 ar
     3    1   16 1
     4    2    4 ar
     5    2   11 ar
     6    2   17 1
     7    3    5 ar
     8    3   11 ar
     9    3   18 1
    10    4   12 1
    11    5   14 1
    12    6   12 am
    13    6   13 am
    14    6   15 2
    15    7   13 1
    16    7   19 1
    17    7   20 1
    18    7   21 1
    19    8   14 1
    20    8   22 1
    21    8   23 1
    22    8   24 1
    23    9   14 1
    24    9   25 1
    25    9   26 1
    26    9   27 1
    27   10   14 1
    28   10   28 1
    29   10   29 1
    30   10   30 1
    31   12   31 1
    32   13   32 1
