@<TRIPOS>MOLECULE
*****
   30    30     0     0     0
SMALL
NO_CHARGES

@<TRIPOS>ATOM
      1 C1         -2.6656   -1.9940    1.5045 C.ar      1 <0>         0.0000
      2 C2         -1.8338   -2.8933    3.5432 C.ar      1 <0>         0.0000
      3 C3         -1.1942   -0.7761    2.9215 C.ar      1 <0>         0.0000
      4 C4         -2.6145   -3.0488    2.4090 C.ar      1 <0>         0.0000
      5 C5         -1.9447   -0.8324    1.7581 C.ar      1 <0>         0.0000
      6 C6         -3.3837   -5.3725    2.9859 C.2       1 <0>         0.0000
      7 C7         -4.2723   -6.4332    2.3862 C.3       1 <0>         0.0000
      8 C8         -3.4196    0.8318    0.6496 C.3       1 <0>         0.0000
      9 C9         -1.4348   -0.1159   -0.5661 C.3       1 <0>         0.0000
     10 C10        -1.1247    1.5182    1.2629 C.3       1 <0>         0.0000
     11 N1         -1.1198   -1.7801    3.8237 N.ar      1 <0>         0.0000
     12 N2         -3.3264   -4.2241    2.1824 N.am      1 <0>         0.0000
     13 N3         -1.9788    0.3467    0.7827 N.4       1 <0>         0.0000
     14 O1         -2.8136   -5.5618    4.0555 O.2       1 <0>         0.0000
     15 H1         -3.2662   -2.0762    0.6013 H         1 <0>         0.0000
     16 H2         -1.7534   -3.6818    4.2855 H         1 <0>         0.0000
     17 H3         -0.6121    0.1051    3.1740 H         1 <0>         0.0000
     18 H4         -3.6828   -7.0858    1.7361 H         1 <0>         0.0000
     19 H5         -5.0623   -5.9628    1.7939 H         1 <0>         0.0000
     20 H6         -4.7330   -7.0273    3.1810 H         1 <0>         0.0000
     21 H7         -3.4262    1.6712   -0.0481 H         1 <0>         0.0000
     22 H8         -4.0181    0.0013    0.2705 H         1 <0>         0.0000
     23 H9         -3.7605    1.1416    1.6394 H         1 <0>         0.0000
     24 H10        -1.4661    0.7355   -1.2485 H         1 <0>         0.0000
     25 H11        -0.4098   -0.4589   -0.4130 H         1 <0>         0.0000
     26 H12        -2.0714   -0.9280   -0.9223 H         1 <0>         0.0000
     27 H13        -1.2003    2.3136    0.5192 H         1 <0>         0.0000
     28 H14        -1.5172    1.8445    2.2279 H         1 <0>         0.0000
     29 H15        -0.0959    1.1653    1.3567 H         1 <0>         0.0000
     30 H16        -3.8837   -4.2632    1.3198 H         1 <0>         0.0000
@<TRIPOS>BOND
     1    1    4 ar
     2    1    5 ar
     3    1   15 1
     4    2    4 ar
     5    2   11 ar
     6    2   16 1
     7    3    5 ar
     8    3   11 ar
     9    3   17 1
    10    4   12 1
    11    5   13 1
    12    6    7 1
    13    6   12 am
    14    6   14 2
    15    7   18 1
    16    7   19 1
    17    7   20 1
    18    8   13 1
    19    8   21 1
    20    8   22 1
    21    8   23 1
    22    9   13 1
    23    9   24 1
    24    9   25 1
    25    9   26 1
    26   10   13 1
    27   10   27 1
    28   10   28 1
    29   10   29 1
    30   12   30 1
