@<TRIPOS>MOLECULE
*****
   22    22     0     0     0
SMALL
NO_CHARGES

@<TRIPOS>ATOM
      1 C1          1.3879   -0.0684    1.6522 C.ar      1 <0>         0.0000
      2 C2          1.6520   -0.6227    2.8997 C.ar      1 <0>         0.0000
      3 C3         -0.6317   -1.3224    1.5803 C.ar      1 <0>         0.0000
      4 C4          0.2265   -0.4197    0.9733 C.ar      1 <0>         0.0000
      5 C5          0.7299   -1.5161    3.4206 C.ar      1 <0>         0.0000
      6 C6          0.8397    1.0690   -0.9156 C.3       1 <0>         0.0000
      7 C7         -1.2759   -0.2601   -0.9959 C.3       1 <0>         0.0000
      8 C8          0.9810   -2.1301    4.7574 C.3       1 <0>         0.0000
      9 N1         -0.4092   -1.8816    2.7908 N.ar      1 <0>         0.0000
     10 N2         -0.0669    0.1235   -0.2880 N.pl3     1 <0>         0.0000
     11 F1          2.1469   -1.7188    5.3375 F         1 <0>         0.0000
     12 F2          0.0089   -1.8546    5.6760 F         1 <0>         0.0000
     13 F3          1.0589   -3.4914    4.7027 F         1 <0>         0.0000
     14 H1          2.0931    0.6355    1.2182 H         1 <0>         0.0000
     15 H2          2.5545   -0.3570    3.4397 H         1 <0>         0.0000
     16 H3         -1.5538   -1.6351    1.0995 H         1 <0>         0.0000
     17 H4          0.4456    1.3794   -1.8868 H         1 <0>         0.0000
     18 H5          1.8209    0.6100   -1.0643 H         1 <0>         0.0000
     19 H6          0.9588    1.9541   -0.2849 H         1 <0>         0.0000
     20 H7         -1.3320    0.2627   -1.9542 H         1 <0>         0.0000
     21 H8         -2.1583   -0.0040   -0.4031 H         1 <0>         0.0000
     22 H9         -1.2792   -1.3374   -1.1819 H         1 <0>         0.0000
@<TRIPOS>BOND
     1    1    2 ar
     2    1    4 ar
     3    1   14 1
     4    2    5 ar
     5    2   15 1
     6    3    4 ar
     7    3    9 ar
     8    3   16 1
     9    4   10 1
    10    5    8 1
    11    5    9 ar
    12    6   10 1
    13    6   17 1
    14    6   18 1
    15    6   19 1
    16    7   10 1
    17    7   20 1
    18    7   21 1
    19    7   22 1
    20    8   11 1
    21    8   12 1
    22    8   13 1
