@<TRIPOS>MOLECULE
*****
   33    33     0     0     0
SMALL
NO_CHARGES

@<TRIPOS>ATOM
      1 C1         -1.8721   -2.9567    3.4690 C.ar      1 <0>         0.0000
      2 C2         -1.5171   -2.0556    1.2675 C.ar      1 <0>         0.0000
      3 C3         -2.2836   -1.6931    3.8611 C.ar      1 <0>         0.0000
      4 C4         -1.4831   -3.1331    2.1458 C.ar      1 <0>         0.0000
      5 C5         -1.9447   -0.8324    1.7581 C.ar      1 <0>         0.0000
      6 C6         -0.6347   -4.7533    0.4147 C.2       1 <0>         0.0000
      7 C7          0.1736   -6.6704   -1.0266 C.3       1 <0>         0.0000
      8 C8         -2.9251    0.0066   -0.3652 C.3       1 <0>         0.0000
      9 C9         -0.5651    0.5970    0.2651 C.3       1 <0>         0.0000
     10 C10        -2.4762    1.6298    1.4452 C.3       1 <0>         0.0000
     11 C11        -0.2605   -6.2270    0.3590 C.3       1 <0>         0.0000
     12 N1         -2.3301   -0.6226    3.0368 N.ar      1 <0>         0.0000
     13 N2         -1.0611   -4.3861    1.7015 N.am      1 <0>         0.0000
     14 N3         -1.9788    0.3467    0.7827 N.4       1 <0>         0.0000
     15 O1         -0.5548   -4.0243   -0.5685 O.2       1 <0>         0.0000
     16 H1         -1.8577   -3.7759    4.1800 H         1 <0>         0.0000
     17 H2         -1.2178   -2.1719    0.2302 H         1 <0>         0.0000
     18 H3         -2.5971   -1.5031    4.8824 H         1 <0>         0.0000
     19 H4         -0.6216   -6.5025   -1.7604 H         1 <0>         0.0000
     20 H5          0.4188   -7.7369   -1.0260 H         1 <0>         0.0000
     21 H6          1.0581   -6.1162   -1.3575 H         1 <0>         0.0000
     22 H7         -2.9378    0.8563   -1.0503 H         1 <0>         0.0000
     23 H8         -2.5438   -0.8896   -0.8582 H         1 <0>         0.0000
     24 H9         -3.9152   -0.1700    0.0593 H         1 <0>         0.0000
     25 H10        -0.6074    1.4393   -0.4278 H         1 <0>         0.0000
     26 H11         0.0693    0.8261    1.1235 H         1 <0>         0.0000
     27 H12        -0.2289   -0.3104   -0.2403 H         1 <0>         0.0000
     28 H13        -2.4718    2.4185    0.6906 H         1 <0>         0.0000
     29 H14        -3.4869    1.4452    1.8143 H         1 <0>         0.0000
     30 H15        -1.7961    1.8677    2.2653 H         1 <0>         0.0000
     31 H16         0.5528   -6.4062    1.0715 H         1 <0>         0.0000
     32 H17        -1.1271   -6.8180    0.6772 H         1 <0>         0.0000
     33 H18        -1.0595   -5.1396    2.3989 H         1 <0>         0.0000
@<TRIPOS>BOND
     1    1    3 ar
     2    1    4 ar
     3    1   16 1
     4    2    4 ar
     5    2    5 ar
     6    2   17 1
     7    3   12 ar
     8    3   18 1
     9    4   13 1
    10    5   12 ar
    11    5   14 1
    12    6   11 1
    13    6   13 am
    14    6   15 2
    15    7   11 1
    16    7   19 1
    17    7   20 1
    18    7   21 1
    19    8   14 1
    20    8   22 1
    21    8   23 1
    22    8   24 1
    23    9   14 1
    24    9   25 1
    25    9   26 1
    26    9   27 1
    27   10   14 1
    28   10   28 1
    29   10   29 1
    30   10   30 1
    31   11   31 1
    32   11   32 1
    33   13   33 1
