@<TRIPOS>MOLECULE
*****
   19    19     0     0     0
SMALL
NO_CHARGES

@<TRIPOS>ATOM
      1 C1          1.3879   -0.0684    1.6522 C.ar      1 <0>         0.0000
      2 C2          1.6520   -0.6227    2.8997 C.ar      1 <0>         0.0000
      3 C3         -0.6317   -1.3224    1.5803 C.ar      1 <0>         0.0000
      4 C4          0.2265   -0.4197    0.9733 C.ar      1 <0>         0.0000
      5 C5          0.7299   -1.5161    3.4206 C.ar      1 <0>         0.0000
      6 C6         -0.0777    0.1437   -0.3303 C.2       1 <0>         0.0000
      7 C7          0.1450   -3.0027    5.3373 C.3       1 <0>         0.0000
      8 N1         -0.4092   -1.8816    2.7908 N.ar      1 <0>         0.0000
      9 N2          1.0141   -2.0734    4.6921 N.pl3     1 <0>         0.0000
     10 O1         -1.0825   -0.1092   -1.0051 O.2       1 <0>         0.0000
     11 O2          0.8797    1.0116   -0.7607 O.3       1 <0>         0.0000
     12 H1          2.0939    0.6343    1.2181 H         1 <0>         0.0000
     13 H2          2.5559   -0.3539    3.4369 H         1 <0>         0.0000
     14 H3         -1.5538   -1.6358    1.0999 H         1 <0>         0.0000
     15 H4         -0.7286   -3.1979    4.7100 H         1 <0>         0.0000
     16 H5         -0.1930   -2.6010    6.2964 H         1 <0>         0.0000
     17 H6          0.6672   -3.9464    5.5170 H         1 <0>         0.0000
     18 H7          1.8649   -1.7822    5.1286 H         1 <0>         0.0000
     19 H8          0.6830    1.3986   -1.6404 H         1 <0>         0.0000
@<TRIPOS>BOND
     1    1    2 ar
     2    1    4 ar
     3    1   12 1
     4    2    5 ar
     5    2   13 1
     6    3    4 ar
     7    3    8 ar
     8    3   14 1
     9    4    6 1
    10    5    8 ar
    11    5    9 1
    12    6   10 2
    13    6   11 1
    14    7    9 1
    15    7   15 1
    16    7   16 1
    17    7   17 1
    18    9   18 1
    19   11   19 1
