@<TRIPOS>MOLECULE
*****
   22    23     0     0     0
SMALL
NO_CHARGES

@<TRIPOS>ATOM
      1 C1          1.8851   -1.0363   -0.1124 C.ar      1 <0>         0.0000
      2 C2          2.8783   -1.6520    2.0022 C.ar      1 <0>         0.0000
      3 C3          0.8066   -0.4630    0.5610 C.ar      1 <0>         0.0000
      4 C4          1.7997   -1.0786    2.6757 C.ar      1 <0>         0.0000
      5 C5          5.2978   -2.2499    0.5012 C.ar      1 <0>         0.0000
      6 C6          3.8615   -2.7732   -1.3556 C.ar      1 <0>         0.0000
      7 C7          6.3368   -2.8295   -0.2091 C.ar      1 <0>         0.0000
      8 C8          4.9648   -3.3291   -1.9828 C.ar      1 <0>         0.0000
      9 C9          2.9210   -1.6309    0.6081 C.ar      1 <0>         0.0000
     10 C10         4.0396   -2.2253   -0.0901 C.ar      1 <0>         0.0000
     11 C11         0.7638   -0.4841    1.9551 C.ar      1 <0>         0.0000
     12 N1          6.2023   -3.3716   -1.4402 N.ar      1 <0>         0.0000
     13 O1         -0.2883    0.0758    2.6119 O.3       1 <0>         0.0000
     14 H1          1.9042   -1.0119   -1.1994 H         1 <0>         0.0000
     15 H2          3.6780   -2.1115    2.5781 H         1 <0>         0.0000
     16 H3          0.0027   -0.0012   -0.0057 H         1 <0>         0.0000
     17 H4          1.7719   -1.0979    3.7617 H         1 <0>         0.0000
     18 H5          5.4746   -1.8326    1.4873 H         1 <0>         0.0000
     19 H6          2.8952   -2.7717   -1.8498 H         1 <0>         0.0000
     20 H7          7.3371   -2.8747    0.2085 H         1 <0>         0.0000
     21 H8          4.8789   -3.7678   -2.9716 H         1 <0>         0.0000
     22 H9         -0.1745   -0.0178    3.5712 H         1 <0>         0.0000
@<TRIPOS>BOND
     1    1    3 ar
     2    1    9 ar
     3    1   14 1
     4    2    4 ar
     5    2    9 ar
     6    2   15 1
     7    3   11 ar
     8    3   16 1
     9    4   11 ar
    10    4   17 1
    11    5    7 ar
    12    5   10 ar
    13    5   18 1
    14    6    8 ar
    15    6   10 ar
    16    6   19 1
    17    7   12 ar
    18    7   20 1
    19    8   12 ar
    20    8   21 1
    21    9   10 1
    22   11   13 1
    23   13   22 1
