@<TRIPOS>MOLECULE
*****
   18    18     0     0     0
SMALL
NO_CHARGES

@<TRIPOS>ATOM
      1 C1          1.3879   -0.0684    1.6522 C.ar      1 <0>         0.0000
      2 C2         -0.6317   -1.3224    1.5803 C.ar      1 <0>         0.0000
      3 C3          0.7299   -1.5161    3.4206 C.ar      1 <0>         0.0000
      4 C4          0.2265   -0.4197    0.9733 C.ar      1 <0>         0.0000
      5 C5          1.6520   -0.6227    2.8997 C.ar      1 <0>         0.0000
      6 C6         -1.1842   -0.1269   -1.0879 C.2       1 <0>         0.0000
      7 C7         -1.1279    0.6578   -2.3745 C.3       1 <0>         0.0000
      8 N1         -0.4092   -1.8816    2.7908 N.ar      1 <0>         0.0000
      9 N2         -0.0664    0.1196   -0.2771 N.am      1 <0>         0.0000
     10 O1         -2.1296   -0.8705   -0.8466 O.2       1 <0>         0.0000
     11 I1          3.3661   -0.1311    3.9435 I         1 <0>         0.0000
     12 H1          2.0804    0.6386    1.2010 H         1 <0>         0.0000
     13 H2         -1.5544   -1.6349    1.1002 H         1 <0>         0.0000
     14 H3          0.8729   -1.9873    4.3887 H         1 <0>         0.0000
     15 H4         -0.6144    0.0728   -3.1428 H         1 <0>         0.0000
     16 H5         -0.5807    1.5913   -2.2151 H         1 <0>         0.0000
     17 H6         -2.1412    0.8956   -2.7114 H         1 <0>         0.0000
     18 H7          0.6174    0.7835   -0.6612 H         1 <0>         0.0000
@<TRIPOS>BOND
     1    1    4 ar
     2    1    5 ar
     3    1   12 1
     4    2    4 ar
     5    2    8 ar
     6    2   13 1
     7    3    5 ar
     8    3    8 ar
     9    3   14 1
    10    4    9 1
    11    5   11 1
    12    6    7 1
    13    6    9 am
    14    6   10 2
    15    7   15 1
    16    7   16 1
    17    7   17 1
    18    9   18 1
