@<TRIPOS>MOLECULE
*****
   33    33     0     0     0
SMALL
NO_CHARGES

@<TRIPOS>ATOM
      1 C1         -2.6656   -1.9940    1.5045 C.ar      1 <0>         0.0000
      2 C2         -1.8338   -2.8933    3.5432 C.ar      1 <0>         0.0000
      3 C3         -1.1942   -0.7761    2.9215 C.ar      1 <0>         0.0000
      4 C4         -2.6145   -3.0488    2.4090 C.ar      1 <0>         0.0000
      5 C5         -1.9447   -0.8324    1.7581 C.ar      1 <0>         0.0000
      6 C6         -3.3853   -5.3756    2.9866 C.2       1 <0>         0.0000
      7 C7         -4.3457   -7.7082    3.1930 C.3       1 <0>         0.0000
      8 C8         -3.4196    0.8318    0.6496 C.3       1 <0>         0.0000
      9 C9         -1.4348   -0.1159   -0.5661 C.3       1 <0>         0.0000
     10 C10        -1.1247    1.5182    1.2629 C.3       1 <0>         0.0000
     11 C11        -4.2849   -6.4352    2.3679 C.3       1 <0>         0.0000
     12 N1         -1.1198   -1.7801    3.8237 N.ar      1 <0>         0.0000
     13 N2         -3.3264   -4.2241    2.1824 N.am      1 <0>         0.0000
     14 N3         -1.9788    0.3467    0.7827 N.4       1 <0>         0.0000
     15 O1         -2.8084   -5.5547    4.0541 O.2       1 <0>         0.0000
     16 H1         -3.2662   -2.0762    0.6013 H         1 <0>         0.0000
     17 H2         -1.7534   -3.6818    4.2855 H         1 <0>         0.0000
     18 H3         -0.6121    0.1051    3.1740 H         1 <0>         0.0000
     19 H4         -3.3498   -8.1475    3.3121 H         1 <0>         0.0000
     20 H5         -4.9896   -8.4473    2.7065 H         1 <0>         0.0000
     21 H6         -4.7468   -7.5101    4.1924 H         1 <0>         0.0000
     22 H7         -3.4262    1.6712   -0.0481 H         1 <0>         0.0000
     23 H8         -4.0181    0.0013    0.2705 H         1 <0>         0.0000
     24 H9         -3.7605    1.1416    1.6394 H         1 <0>         0.0000
     25 H10        -1.4661    0.7355   -1.2485 H         1 <0>         0.0000
     26 H11        -0.4098   -0.4589   -0.4130 H         1 <0>         0.0000
     27 H12        -2.0714   -0.9280   -0.9223 H         1 <0>         0.0000
     28 H13        -1.2003    2.3136    0.5192 H         1 <0>         0.0000
     29 H14        -1.5172    1.8445    2.2279 H         1 <0>         0.0000
     30 H15        -0.0959    1.1653    1.3567 H         1 <0>         0.0000
     31 H16        -5.2933   -6.0180    2.2651 H         1 <0>         0.0000
     32 H17        -3.9095   -6.6674    1.3646 H         1 <0>         0.0000
     33 H18        -3.8827   -4.2626    1.3191 H         1 <0>         0.0000
@<TRIPOS>BOND
     1    1    4 ar
     2    1    5 ar
     3    1   16 1
     4    2    4 ar
     5    2   12 ar
     6    2   17 1
     7    3    5 ar
     8    3   12 ar
     9    3   18 1
    10    4   13 1
    11    5   14 1
    12    6   11 1
    13    6   13 am
    14    6   15 2
    15    7   11 1
    16    7   19 1
    17    7   20 1
    18    7   21 1
    19    8   14 1
    20    8   22 1
    21    8   23 1
    22    8   24 1
    23    9   14 1
    24    9   25 1
    25    9   26 1
    26    9   27 1
    27   10   14 1
    28   10   28 1
    29   10   29 1
    30   10   30 1
    31   11   31 1
    32   11   32 1
    33   13   33 1
