@<TRIPOS>MOLECULE
*****
   22    22     0     0     0
SMALL
NO_CHARGES

@<TRIPOS>ATOM
      1 C1          1.3879   -0.0684    1.6522 C.ar      1 <0>         0.0000
      2 C2          1.6520   -0.6227    2.8997 C.ar      1 <0>         0.0000
      3 C3         -0.6317   -1.3224    1.5803 C.ar      1 <0>         0.0000
      4 C4          0.2265   -0.4197    0.9733 C.ar      1 <0>         0.0000
      5 C5          0.7299   -1.5161    3.4206 C.ar      1 <0>         0.0000
      6 C6         -1.1866   -0.1221   -1.0992 C.2       1 <0>         0.0000
      7 C7         -2.1191    0.5660   -3.3141 C.3       1 <0>         0.0000
      8 N1         -0.4092   -1.8816    2.7908 N.ar      1 <0>         0.0000
      9 N2         -0.0653    0.1193   -0.2775 N.am      1 <0>         0.0000
     10 N3         -1.1071    0.6166   -2.2841 N.am      1 <0>         0.0000
     11 N4          1.0487   -2.0548    4.7061 N.pl3     1 <0>         0.0000
     12 O1          2.1097   -1.6937    5.2598 O.3       1 <0>         0.0000
     13 O2         -2.1231   -0.8734   -0.8378 O.2       1 <0>         0.0000
     14 O3          0.2546   -2.8671    5.2280 O.2       1 <0>         0.0000
     15 H1          2.0931    0.6352    1.2179 H         1 <0>         0.0000
     16 H2          2.5579   -0.3508    3.4326 H         1 <0>         0.0000
     17 H3         -1.5537   -1.6355    1.0997 H         1 <0>         0.0000
     18 H4         -1.8847   -0.2236   -4.0327 H         1 <0>         0.0000
     19 H5         -2.1670    1.5212   -3.8441 H         1 <0>         0.0000
     20 H6         -3.0980    0.3608   -2.8725 H         1 <0>         0.0000
     21 H7          0.6154    0.7820   -0.6663 H         1 <0>         0.0000
     22 H8         -0.3007    1.2163   -2.4272 H         1 <0>         0.0000
@<TRIPOS>BOND
     1    1    2 ar
     2    1    4 ar
     3    1   15 1
     4    2    5 ar
     5    2   16 1
     6    3    4 ar
     7    3    8 ar
     8    3   17 1
     9    4    9 1
    10    5    8 ar
    11    5   11 1
    12    6    9 am
    13    6   10 am
    14    6   13 2
    15    7   10 1
    16    7   18 1
    17    7   19 1
    18    7   20 1
    19    9   21 1
    20   10   22 1
    21   11   12 1
    22   11   14 2
