@<TRIPOS>MOLECULE
*****
   32    32     0     0     0
SMALL
NO_CHARGES

@<TRIPOS>ATOM
      1 C1          6.9121   -0.1821   -3.3215 C.ar      1 <0>         0.0000
      2 C2          5.6678    0.1509   -2.7864 C.ar      1 <0>         0.0000
      3 C3          7.9389   -0.6153   -2.4826 C.ar      1 <0>         0.0000
      4 C4          6.4769   -0.3825   -0.5733 C.ar      1 <0>         0.0000
      5 C5          5.4502    0.0507   -1.4123 C.ar      1 <0>         0.0000
      6 C6          7.7212   -0.7155   -1.1084 C.ar      1 <0>         0.0000
      7 C7          3.7954    0.3487    0.4717 C.2       1 <0>         0.0000
      8 C8         10.0562   -1.5010   -0.8069 C.3       1 <0>         0.0000
      9 C9          8.5482   -1.2474    1.1705 C.3       1 <0>         0.0000
     10 C10         2.2584    1.4061    2.1557 C.3       1 <0>         0.0000
     11 C11         2.2847    2.2584   -0.1646 C.3       1 <0>         0.0000
     12 N1          4.1859    0.3893   -0.8691 N.am      1 <0>         0.0000
     13 N2          8.7596   -1.1531   -0.2604 N.pl3     1 <0>         0.0000
     14 N3          2.8114    1.3062    0.8110 N.am      1 <0>         0.0000
     15 O1          4.2358   -0.4520    1.2994 O.2       1 <0>         0.0000
     16 H1          7.0814   -0.1045   -4.3917 H         1 <0>         0.0000
     17 H2          4.8755    0.4877   -3.4503 H         1 <0>         0.0000
     18 H3          8.9049   -0.8716   -2.9102 H         1 <0>         0.0000
     19 H4          6.3066   -0.4598    0.4985 H         1 <0>         0.0000
     20 H5         10.7296   -1.8158   -0.0054 H         1 <0>         0.0000
     21 H6         10.4950   -0.6391   -1.3169 H         1 <0>         0.0000
     22 H7          9.9566   -2.3196   -1.5247 H         1 <0>         0.0000
     23 H8          9.4579   -1.6020    1.6621 H         1 <0>         0.0000
     24 H9          7.7358   -1.9463    1.3873 H         1 <0>         0.0000
     25 H10         8.2863   -0.2678    1.5792 H         1 <0>         0.0000
     26 H11         2.8530    2.0995    2.7560 H         1 <0>         0.0000
     27 H12         2.2647    0.4261    2.6407 H         1 <0>         0.0000
     28 H13         1.2283    1.7702    2.1147 H         1 <0>         0.0000
     29 H14         1.4120    1.8354   -0.6690 H         1 <0>         0.0000
     30 H15         3.0458    2.4915   -0.9142 H         1 <0>         0.0000
     31 H16         1.9882    3.1852    0.3338 H         1 <0>         0.0000
     32 H17         3.4815    0.6973   -1.5318 H         1 <0>         0.0000
@<TRIPOS>BOND
     1    1    2 ar
     2    1    3 ar
     3    1   16 1
     4    2    5 ar
     5    2   17 1
     6    3    6 ar
     7    3   18 1
     8    4    5 ar
     9    4    6 ar
    10    4   19 1
    11    5   12 1
    12    6   13 1
    13    7   12 am
    14    7   14 am
    15    7   15 2
    16    8   13 1
    17    8   20 1
    18    8   21 1
    19    8   22 1
    20    9   13 1
    21    9   23 1
    22    9   24 1
    23    9   25 1
    24   10   14 1
    25   10   26 1
    26   10   27 1
    27   10   28 1
    28   11   14 1
    29   11   29 1
    30   11   30 1
    31   11   31 1
    32   12   32 1
