@<TRIPOS>MOLECULE
*****
   19    19     0     0     0
SMALL
NO_CHARGES

@<TRIPOS>ATOM
      1 C1          1.8851   -1.0363   -0.1124 C.ar      1 <0>         0.0000
      2 C2          2.8783   -1.6520    2.0022 C.ar      1 <0>         0.0000
      3 C3          0.8066   -0.4630    0.5610 C.ar      1 <0>         0.0000
      4 C4          1.7997   -1.0786    2.6757 C.ar      1 <0>         0.0000
      5 C5          2.9210   -1.6309    0.6081 C.ar      1 <0>         0.0000
      6 C6          0.7638   -0.4841    1.9551 C.ar      1 <0>         0.0000
      7 C7          4.6749   -3.8788   -1.5961 C.3       1 <0>         0.0000
      8 C8          3.7160   -2.7352   -1.3423 C.3       1 <0>         0.0000
      9 O1          3.9732   -2.1915   -0.0485 O.3       1 <0>         0.0000
     10 I1         -0.8427    0.3696    2.9581 I         1 <0>         0.0000
     11 H1          1.9129   -1.0164   -1.1986 H         1 <0>         0.0000
     12 H2          3.6821   -2.1149    2.5684 H         1 <0>         0.0000
     13 H3          0.0094   -0.0060   -0.0196 H         1 <0>         0.0000
     14 H4          1.7854   -1.1066    3.7623 H         1 <0>         0.0000
     15 H5          5.7119   -3.5332   -1.5626 H         1 <0>         0.0000
     16 H6          4.5409   -4.6680   -0.8491 H         1 <0>         0.0000
     17 H7          4.4849   -4.3315   -2.5749 H         1 <0>         0.0000
     18 H8          2.6808   -3.0874   -1.3772 H         1 <0>         0.0000
     19 H9          3.8518   -1.9472   -2.0891 H         1 <0>         0.0000
@<TRIPOS>BOND
     1    1    3 ar
     2    1    5 ar
     3    1   11 1
     4    2    4 ar
     5    2    5 ar
     6    2   12 1
     7    3    6 ar
     8    3   13 1
     9    4    6 ar
    10    4   14 1
    11    5    9 1
    12    6   10 1
    13    7    8 1
    14    7   15 1
    15    7   16 1
    16    7   17 1
    17    8    9 1
    18    8   18 1
    19    8   19 1
