@<TRIPOS>MOLECULE
*****
   22    22     0     0     0
SMALL
NO_CHARGES

@<TRIPOS>ATOM
      1 C1          1.8851   -1.0363   -0.1124 C.ar      1 <0>         0.0000
      2 C2          2.8783   -1.6520    2.0022 C.ar      1 <0>         0.0000
      3 C3          0.8066   -0.4630    0.5610 C.ar      1 <0>         0.0000
      4 C4          1.7997   -1.0786    2.6757 C.ar      1 <0>         0.0000
      5 C5          2.9210   -1.6309    0.6081 C.ar      1 <0>         0.0000
      6 C6          0.7638   -0.4841    1.9551 C.ar      1 <0>         0.0000
      7 C7         -1.4079    0.7160    1.8975 C.3       1 <0>         0.0000
      8 C8         -0.3865    0.0662    4.0844 C.3       1 <0>         0.0000
      9 N1          4.0107   -2.2119   -0.0734 N.pl3     1 <0>         0.0000
     10 N2         -0.3263    0.0955    2.6364 N.pl3     1 <0>         0.0000
     11 H1          1.9088   -1.0131   -1.1990 H         1 <0>         0.0000
     12 H2          3.6806   -2.1119    2.5736 H         1 <0>         0.0000
     13 H3          0.0050   -0.0022   -0.0106 H         1 <0>         0.0000
     14 H4          1.7765   -1.1000    3.7622 H         1 <0>         0.0000
     15 H5         -2.1586    1.1081    2.5885 H         1 <0>         0.0000
     16 H6         -1.8839   -0.0154    1.2387 H         1 <0>         0.0000
     17 H7         -1.0259    1.5398    1.2885 H         1 <0>         0.0000
     18 H8         -1.2973    0.5601    4.4327 H         1 <0>         0.0000
     19 H9          0.4784    0.5829    4.5092 H         1 <0>         0.0000
     20 H10        -0.3878   -0.9671    4.4418 H         1 <0>         0.0000
     21 H11         4.7693   -2.5929    0.4549 H         1 <0>         0.0000
     22 H12         4.0515   -2.1493   -1.0705 H         1 <0>         0.0000
@<TRIPOS>BOND
     1    1    3 ar
     2    1    5 ar
     3    1   11 1
     4    2    4 ar
     5    2    5 ar
     6    2   12 1
     7    3    6 ar
     8    3   13 1
     9    4    6 ar
    10    4   14 1
    11    5    9 1
    12    6   10 1
    13    7   10 1
    14    7   15 1
    15    7   16 1
    16    7   17 1
    17    8   10 1
    18    8   18 1
    19    8   19 1
    20    8   20 1
    21    9   21 1
    22    9   22 1
