@<TRIPOS>MOLECULE
*****
   36    36     0     0     0
SMALL
NO_CHARGES

@<TRIPOS>ATOM
      1 C1          6.9118   -0.1841   -3.3216 C.ar      1 <0>         0.0000
      2 C2          5.6678    0.1502   -2.7865 C.ar      1 <0>         0.0000
      3 C3          7.9381   -0.6181   -2.4825 C.ar      1 <0>         0.0000
      4 C4          6.4765   -0.3832   -0.5732 C.ar      1 <0>         0.0000
      5 C5          5.4502    0.0507   -1.4123 C.ar      1 <0>         0.0000
      6 C6          7.7205   -0.7176   -1.1083 C.ar      1 <0>         0.0000
      7 C7          3.7955    0.3492    0.4718 C.2       1 <0>         0.0000
      8 C8          2.2585    1.4071    2.1554 C.3       1 <0>         0.0000
      9 C9          2.2844    2.2583   -0.1653 C.3       1 <0>         0.0000
     10 C10        10.0258   -0.2324   -0.3183 C.3       1 <0>         0.0000
     11 C11         9.2516   -2.6069   -0.5970 C.3       1 <0>         0.0000
     12 C12         8.4204   -1.2265    1.2779 C.3       1 <0>         0.0000
     13 N1          4.1859    0.3893   -0.8691 N.am      1 <0>         0.0000
     14 N2          2.8114    1.3068    0.8107 N.am      1 <0>         0.0000
     15 N3          8.7851   -1.1669   -0.2390 N.4       1 <0>         0.0000
     16 O1          4.2362   -0.4509    1.2998 O.2       1 <0>         0.0000
     17 H1          7.0810   -0.1062   -4.3917 H         1 <0>         0.0000
     18 H2          4.8749    0.4874   -3.4496 H         1 <0>         0.0000
     19 H3          8.9038   -0.8754   -2.9095 H         1 <0>         0.0000
     20 H4          6.3082   -0.4614    0.4987 H         1 <0>         0.0000
     21 H5          2.8531    2.1010    2.7553 H         1 <0>         0.0000
     22 H6          2.2651    0.4274    2.6409 H         1 <0>         0.0000
     23 H7          1.2284    1.7710    2.1144 H         1 <0>         0.0000
     24 H8          1.4117    1.8349   -0.6694 H         1 <0>         0.0000
     25 H9          3.0453    2.4912   -0.9150 H         1 <0>         0.0000
     26 H10         1.9878    3.1853    0.3328 H         1 <0>         0.0000
     27 H11        10.7856   -0.6280    0.3582 H         1 <0>         0.0000
     28 H12        10.3801   -0.2344   -1.3509 H         1 <0>         0.0000
     29 H13         9.7110    0.7674   -0.0133 H         1 <0>         0.0000
     30 H14        10.0511   -2.8804    0.0940 H         1 <0>         0.0000
     31 H15         8.3935   -3.2729   -0.4879 H         1 <0>         0.0000
     32 H16         9.6108   -2.5951   -1.6278 H         1 <0>         0.0000
     33 H17         9.3008   -1.5773    1.8195 H         1 <0>         0.0000
     34 H18         8.1402   -0.2199    1.5941 H         1 <0>         0.0000
     35 H19         7.5860   -1.9209    1.3939 H         1 <0>         0.0000
     36 H20         3.4814    0.6969   -1.5319 H         1 <0>         0.0000
@<TRIPOS>BOND
     1    1    2 ar
     2    1    3 ar
     3    1   17 1
     4    2    5 ar
     5    2   18 1
     6    3    6 ar
     7    3   19 1
     8    4    5 ar
     9    4    6 ar
    10    4   20 1
    11    5   13 1
    12    6   15 1
    13    7   13 am
    14    7   14 am
    15    7   16 2
    16    8   14 1
    17    8   21 1
    18    8   22 1
    19    8   23 1
    20    9   14 1
    21    9   24 1
    22    9   25 1
    23    9   26 1
    24   10   15 1
    25   10   27 1
    26   10   28 1
    27   10   29 1
    28   11   15 1
    29   11   30 1
    30   11   31 1
    31   11   32 1
    32   12   15 1
    33   12   33 1
    34   12   34 1
    35   12   35 1
    36   13   36 1
