@<TRIPOS>MOLECULE
*****
   22    22     0     0     0
SMALL
NO_CHARGES

@<TRIPOS>ATOM
      1 C1          1.8851   -1.0363   -0.1124 C.ar      1 <0>         0.0000
      2 C2          2.8783   -1.6520    2.0022 C.ar      1 <0>         0.0000
      3 C3          0.8066   -0.4630    0.5610 C.ar      1 <0>         0.0000
      4 C4          1.7997   -1.0786    2.6757 C.ar      1 <0>         0.0000
      5 C5          2.9210   -1.6309    0.6081 C.ar      1 <0>         0.0000
      6 C6          0.7638   -0.4841    1.9551 C.ar      1 <0>         0.0000
      7 C7          5.3838   -2.8785   -1.9377 C.3       1 <0>         0.0000
      8 C8          4.1169   -2.2263   -1.4992 C.3       1 <0>         0.0000
      9 N1          4.0107   -2.2118   -0.0730 N.pl3     1 <0>         0.0000
     10 N2         -0.3314    0.1036    2.6416 N.pl3     1 <0>         0.0000
     11 O1         -1.2511    0.6372    1.9754 O.3       1 <0>         0.0000
     12 O2         -0.3494    0.0737    3.8960 O.2       1 <0>         0.0000
     13 H1          1.9077   -1.0152   -1.1991 H         1 <0>         0.0000
     14 H2          3.6805   -2.1128    2.5731 H         1 <0>         0.0000
     15 H3          0.0059   -0.0025   -0.0126 H         1 <0>         0.0000
     16 H4          1.7802   -1.1005    3.7625 H         1 <0>         0.0000
     17 H5          6.2551   -2.3419   -1.5468 H         1 <0>         0.0000
     18 H6          5.4220   -3.9210   -1.6035 H         1 <0>         0.0000
     19 H7          5.4456   -2.8712   -3.0325 H         1 <0>         0.0000
     20 H8          3.2510   -2.7671   -1.8929 H         1 <0>         0.0000
     21 H9          4.0733   -1.1901   -1.8472 H         1 <0>         0.0000
     22 H10         4.7290   -2.6275    0.4896 H         1 <0>         0.0000
@<TRIPOS>BOND
     1    1    3 ar
     2    1    5 ar
     3    1   13 1
     4    2    4 ar
     5    2    5 ar
     6    2   14 1
     7    3    6 ar
     8    3   15 1
     9    4    6 ar
    10    4   16 1
    11    5    9 1
    12    6   10 1
    13    7    8 1
    14    7   17 1
    15    7   18 1
    16    7   19 1
    17    8    9 1
    18    8   20 1
    19    8   21 1
    20    9   22 1
    21   10   11 1
    22   10   12 2
