@<TRIPOS>MOLECULE
*****
   24    24     0     0     0
SMALL
NO_CHARGES

@<TRIPOS>ATOM
      1 C1          0.2265   -0.4197    0.9733 C.ar      1 <0>         0.0000
      2 C2          1.6520   -0.6227    2.8997 C.ar      1 <0>         0.0000
      3 C3         -0.6317   -1.3224    1.5803 C.ar      1 <0>         0.0000
      4 C4          1.3879   -0.0684    1.6522 C.ar      1 <0>         0.0000
      5 C5          0.7299   -1.5161    3.4206 C.ar      1 <0>         0.0000
      6 C6          3.2595    0.2302    0.2974 C.2       1 <0>         0.0000
      7 C7          0.7039   -3.4440    6.6463 C.3       1 <0>         0.0000
      8 C8          0.1443   -3.0033    5.3367 C.3       1 <0>         0.0000
      9 N1         -0.4092   -1.8816    2.7908 N.ar      1 <0>         0.0000
     10 N2          4.1028    1.1792   -0.2273 N.am      1 <0>         0.0000
     11 N3          1.0130   -2.0727    4.6927 N.pl3     1 <0>         0.0000
     12 O1          3.3658   -0.9751    0.0928 O.2       1 <0>         0.0000
     13 O2          2.2620    0.8144    1.0977 O.3       1 <0>         0.0000
     14 H1         -0.0054   -0.0043   -0.0014 H         1 <0>         0.0000
     15 H2          2.5545   -0.3566    3.4417 H         1 <0>         0.0000
     16 H3         -1.5508   -1.6300    1.0925 H         1 <0>         0.0000
     17 H4          1.6734   -3.9357    6.5115 H         1 <0>         0.0000
     18 H5          0.8220   -2.5933    7.3264 H         1 <0>         0.0000
     19 H6          0.0232   -4.1628    7.1180 H         1 <0>         0.0000
     20 H7         -0.8236   -2.5132    5.4786 H         1 <0>         0.0000
     21 H8          0.0123   -3.8561    4.6644 H         1 <0>         0.0000
     22 H9          4.8786    0.9221   -0.8282 H         1 <0>         0.0000
     23 H10         3.9757    2.1661   -0.0301 H         1 <0>         0.0000
     24 H11         1.8627   -1.7802    5.1304 H         1 <0>         0.0000
@<TRIPOS>BOND
     1    1    3 ar
     2    1    4 ar
     3    1   14 1
     4    2    4 ar
     5    2    5 ar
     6    2   15 1
     7    3    9 ar
     8    3   16 1
     9    4   13 1
    10    5    9 ar
    11    5   11 1
    12    6   10 am
    13    6   12 2
    14    6   13 1
    15    7    8 1
    16    7   17 1
    17    7   18 1
    18    7   19 1
    19    8   11 1
    20    8   20 1
    21    8   21 1
    22   10   22 1
    23   10   23 1
    24   11   24 1
