@<TRIPOS>MOLECULE
*****
   22    22     0     0     0
SMALL
NO_CHARGES

@<TRIPOS>ATOM
      1 C1          1.8851   -1.0363   -0.1124 C.ar      1 <0>         0.0000
      2 C2          0.8066   -0.4630    0.5610 C.ar      1 <0>         0.0000
      3 C3          2.9210   -1.6309    0.6081 C.ar      1 <0>         0.0000
      4 C4          1.7997   -1.0786    2.6757 C.ar      1 <0>         0.0000
      5 C5          0.7638   -0.4841    1.9551 C.ar      1 <0>         0.0000
      6 C6          2.8783   -1.6520    2.0022 C.ar      1 <0>         0.0000
      7 C7         -0.3608    0.1134    2.6578 C.2       1 <0>         0.0000
      8 C8         -3.3104    1.7893    1.2472 C.3       1 <0>         0.0000
      9 C9         -2.4284    1.2659    2.3606 C.3       1 <0>         0.0000
     10 O1         -0.4820    0.1407    3.8896 O.2       1 <0>         0.0000
     11 O2          3.8888   -2.2321    2.7055 O.3       1 <0>         0.0000
     12 O3         -1.2725    0.6454    1.7874 O.3       1 <0>         0.0000
     13 H1          1.9183   -1.0198   -1.1978 H         1 <0>         0.0000
     14 H2          0.0042   -0.0033   -0.0101 H         1 <0>         0.0000
     15 H3          3.7585   -2.0758    0.0778 H         1 <0>         0.0000
     16 H4          1.7710   -1.0984    3.7628 H         1 <0>         0.0000
     17 H5         -2.7790    2.5310    0.6444 H         1 <0>         0.0000
     18 H6         -3.6357    0.9716    0.5957 H         1 <0>         0.0000
     19 H7         -4.2158    2.2497    1.6563 H         1 <0>         0.0000
     20 H8         -2.9658    0.5246    2.9596 H         1 <0>         0.0000
     21 H9         -2.1036    2.0842    3.0101 H         1 <0>         0.0000
     22 H10         4.5612   -2.5837    2.1004 H         1 <0>         0.0000
@<TRIPOS>BOND
     1    1    2 ar
     2    1    3 ar
     3    1   13 1
     4    2    5 ar
     5    2   14 1
     6    3    6 ar
     7    3   15 1
     8    4    5 ar
     9    4    6 ar
    10    4   16 1
    11    5    7 1
    12    6   11 1
    13    7   10 2
    14    7   12 1
    15    8    9 1
    16    8   17 1
    17    8   18 1
    18    8   19 1
    19    9   12 1
    20    9   20 1
    21    9   21 1
    22   11   22 1
