@<TRIPOS>MOLECULE
*****
   31    31     0     0     0
SMALL
NO_CHARGES

@<TRIPOS>ATOM
      1 C1          1.8761    1.5716   -4.9088 C.ar      1 <0>         0.0000
      2 C2         -0.1615    0.5352   -5.5650 C.ar      1 <0>         0.0000
      3 C3          0.7372    0.0170   -3.5151 C.ar      1 <0>         0.0000
      4 C4          0.8733    1.4087   -5.8581 C.ar      1 <0>         0.0000
      5 C5          1.8142    0.8660   -3.7123 C.ar      1 <0>         0.0000
      6 C6          0.9090    2.1316   -7.1175 C.2       1 <0>         0.0000
      7 C7          4.0153   -0.0696    0.7050 C.3       1 <0>         0.0000
      8 C8          3.4263    4.5289   -8.3106 C.3       1 <0>         0.0000
      9 C9          3.9968    0.6806   -0.6192 C.3       1 <0>         0.0000
     10 C10         2.8005    0.3119   -1.4884 C.3       1 <0>         0.0000
     11 C11         2.1582    3.7074   -8.4041 C.3       1 <0>         0.0000
     12 N1         -0.2558   -0.1674   -4.4139 N.ar      1 <0>         0.0000
     13 N2          2.8015    1.0088   -2.7448 N.pl3     1 <0>         0.0000
     14 O1          0.0515    2.0352   -8.0068 O.2       1 <0>         0.0000
     15 O2          2.0108    2.9392   -7.2050 O.3       1 <0>         0.0000
     16 H1          2.7054    2.2485   -5.1019 H         1 <0>         0.0000
     17 H2         -0.9726    0.3658   -6.2667 H         1 <0>         0.0000
     18 H3          0.6345   -0.5605   -2.6015 H         1 <0>         0.0000
     19 H4          3.1101    0.1362    1.2851 H         1 <0>         0.0000
     20 H5          4.0643   -1.1485    0.5259 H         1 <0>         0.0000
     21 H6          4.8835    0.2097    1.3098 H         1 <0>         0.0000
     22 H7          3.3851    5.2147   -7.4598 H         1 <0>         0.0000
     23 H8          4.3001    3.8787   -8.1987 H         1 <0>         0.0000
     24 H9          3.5775    5.1105   -9.2261 H         1 <0>         0.0000
     25 H10         4.9174    0.4476   -1.1667 H         1 <0>         0.0000
     26 H11         4.0007    1.7592   -0.4221 H         1 <0>         0.0000
     27 H12         2.8191   -0.7585   -1.7163 H         1 <0>         0.0000
     28 H13         1.8568    0.5360   -0.9814 H         1 <0>         0.0000
     29 H14         2.2059    3.0237   -9.2570 H         1 <0>         0.0000
     30 H15         1.2861    4.3585   -8.5151 H         1 <0>         0.0000
     31 H16         3.5677    1.6476   -2.9438 H         1 <0>         0.0000
@<TRIPOS>BOND
     1    1    4 ar
     2    1    5 ar
     3    1   16 1
     4    2    4 ar
     5    2   12 ar
     6    2   17 1
     7    3    5 ar
     8    3   12 ar
     9    3   18 1
    10    4    6 1
    11    5   13 1
    12    6   14 2
    13    6   15 1
    14    7    9 1
    15    7   19 1
    16    7   20 1
    17    7   21 1
    18    8   11 1
    19    8   22 1
    20    8   23 1
    21    8   24 1
    22    9   10 1
    23    9   25 1
    24    9   26 1
    25   10   13 1
    26   10   27 1
    27   10   28 1
    28   11   15 1
    29   11   29 1
    30   11   30 1
    31   13   31 1
