@<TRIPOS>MOLECULE
*****
   33    33     0     0     0
SMALL
NO_CHARGES

@<TRIPOS>ATOM
      1 C1         -1.6781   -3.1977    2.1716 C.ar      1 <0>         0.0000
      2 C2         -2.1141   -1.6918    4.0098 C.ar      1 <0>         0.0000
      3 C3         -1.7105   -2.1229    1.2832 C.ar      1 <0>         0.0000
      4 C4         -2.1465   -0.6168    3.1214 C.ar      1 <0>         0.0000
      5 C5         -1.8800   -2.9822    3.5349 C.ar      1 <0>         0.0000
      6 C6         -1.9447   -0.8324    1.7581 C.ar      1 <0>         0.0000
      7 C7         -2.0262   -4.0451    5.8217 C.2       1 <0>         0.0000
      8 C8         -2.0573   -5.6255    7.7583 C.3       1 <0>         0.0000
      9 C9         -3.0895    0.1085   -0.2363 C.3       1 <0>         0.0000
     10 C10        -0.6219    0.4523    0.0923 C.3       1 <0>         0.0000
     11 C11        -2.2570    1.6722    1.4887 C.3       1 <0>         0.0000
     12 N1         -1.8467   -4.0570    4.4236 N.am      1 <0>         0.0000
     13 N2         -1.9176   -5.3356    6.3498 N.am      1 <0>         0.0000
     14 N3         -1.9788    0.3467    0.7827 N.4       1 <0>         0.0000
     15 O1         -2.2494   -3.0536    6.5123 O.2       1 <0>         0.0000
     16 H1         -1.4959   -4.1995    1.7904 H         1 <0>         0.0000
     17 H2         -2.2731   -1.5117    5.0700 H         1 <0>         0.0000
     18 H3         -1.5514   -2.3011    0.2228 H         1 <0>         0.0000
     19 H4         -2.3299    0.3848    3.5016 H         1 <0>         0.0000
     20 H5         -1.0845   -5.5634    8.2529 H         1 <0>         0.0000
     21 H6         -2.4600   -6.6323    7.8988 H         1 <0>         0.0000
     22 H7         -2.7366   -4.9079    8.2263 H         1 <0>         0.0000
     23 H8         -3.1002    0.9569   -0.9230 H         1 <0>         0.0000
     24 H9         -2.8655   -0.8207   -0.7636 H         1 <0>         0.0000
     25 H10        -4.0324    0.0330    0.3088 H         1 <0>         0.0000
     26 H11        -0.6635    1.2965   -0.5985 H         1 <0>         0.0000
     27 H12         0.1338    0.6129    0.8635 H         1 <0>         0.0000
     28 H13        -0.4451   -0.4833   -0.4417 H         1 <0>         0.0000
     29 H14        -2.2656    2.4584    0.7315 H         1 <0>         0.0000
     30 H15        -3.2277    1.5910    1.9815 H         1 <0>         0.0000
     31 H16        -1.4600    1.8369    2.2163 H         1 <0>         0.0000
     32 H17        -1.6699   -4.9832    4.0203 H         1 <0>         0.0000
     33 H18        -1.7319   -6.1046    5.7136 H         1 <0>         0.0000
@<TRIPOS>BOND
     1    1    3 ar
     2    1    5 ar
     3    1   16 1
     4    2    4 ar
     5    2    5 ar
     6    2   17 1
     7    3    6 ar
     8    3   18 1
     9    4    6 ar
    10    4   19 1
    11    5   12 1
    12    6   14 1
    13    7   12 am
    14    7   13 am
    15    7   15 2
    16    8   13 1
    17    8   20 1
    18    8   21 1
    19    8   22 1
    20    9   14 1
    21    9   23 1
    22    9   24 1
    23    9   25 1
    24   10   14 1
    25   10   26 1
    26   10   27 1
    27   10   28 1
    28   11   14 1
    29   11   29 1
    30   11   30 1
    31   11   31 1
    32   12   32 1
    33   13   33 1
