@<TRIPOS>MOLECULE
*****
   16    16     0     0     0
SMALL
NO_CHARGES

@<TRIPOS>ATOM
      1 C1          1.8851   -1.0363   -0.1124 C.ar      1 <0>         0.0000
      2 C2          0.8066   -0.4630    0.5610 C.ar      1 <0>         0.0000
      3 C3          2.9210   -1.6309    0.6081 C.ar      1 <0>         0.0000
      4 C4          1.7997   -1.0786    2.6757 C.ar      1 <0>         0.0000
      5 C5          0.7638   -0.4841    1.9551 C.ar      1 <0>         0.0000
      6 C6          2.8783   -1.6520    2.0022 C.ar      1 <0>         0.0000
      7 C7         -0.3892    0.1293    2.6750 C.3       1 <0>         0.0000
      8 O1          3.8889   -2.2327    2.7053 O.3       1 <0>         0.0000
      9 H1          1.9181   -1.0203   -1.1978 H         1 <0>         0.0000
     10 H2          0.0044   -0.0017   -0.0089 H         1 <0>         0.0000
     11 H3          3.7583   -2.0757    0.0777 H         1 <0>         0.0000
     12 H4          1.7692   -1.0964    3.7626 H         1 <0>         0.0000
     13 H5         -1.1813   -0.6133    2.8305 H         1 <0>         0.0000
     14 H6         -0.0844    0.5229    3.6533 H         1 <0>         0.0000
     15 H7         -0.8086    0.9723    2.1103 H         1 <0>         0.0000
     16 H8          3.7161   -2.1679    3.6580 H         1 <0>         0.0000
@<TRIPOS>BOND
     1    1    2 ar
     2    1    3 ar
     3    1    9 1
     4    2    5 ar
     5    2   10 1
     6    3    6 ar
     7    3   11 1
     8    4    5 ar
     9    4    6 ar
    10    4   12 1
    11    5    7 1
    12    6    8 1
    13    7   13 1
    14    7   14 1
    15    7   15 1
    16    8   16 1
