@<TRIPOS>MOLECULE
*****
   27    27     0     0     0
SMALL
NO_CHARGES

@<TRIPOS>ATOM
      1 C1         -1.4877   -3.1346    2.1418 C.ar      1 <0>         0.0000
      2 C2         -1.5236   -2.0566    1.2643 C.ar      1 <0>         0.0000
      3 C3         -2.2738   -1.6933    3.8626 C.ar      1 <0>         0.0000
      4 C4         -1.8684   -2.9579    3.4673 C.ar      1 <0>         0.0000
      5 C5         -1.9447   -0.8324    1.7581 C.ar      1 <0>         0.0000
      6 C6         -2.9315    0.0100   -0.3609 C.3       1 <0>         0.0000
      7 C7         -0.5665    0.5916    0.2588 C.3       1 <0>         0.0000
      8 C8         -2.4685    1.6318    1.4472 C.3       1 <0>         0.0000
      9 C9         -1.4108   -5.2600    3.8501 C.3       1 <0>         0.0000
     10 N1         -2.3219   -0.6222    3.0392 N.ar      1 <0>         0.0000
     11 N2         -1.9788    0.3467    0.7827 N.4       1 <0>         0.0000
     12 O1         -1.8431   -3.9911    4.3452 O.3       1 <0>         0.0000
     13 H1         -1.1627   -4.1088    1.7876 H         1 <0>         0.0000
     14 H2         -1.2276   -2.1852    0.2287 H         1 <0>         0.0000
     15 H3         -2.5821   -1.4977    4.8849 H         1 <0>         0.0000
     16 H4         -2.9442    0.8596   -1.0460 H         1 <0>         0.0000
     17 H5         -2.5557   -0.8877   -0.8555 H         1 <0>         0.0000
     18 H6         -3.9204   -0.1629    0.0680 H         1 <0>         0.0000
     19 H7         -0.6088    1.4340   -0.4341 H         1 <0>         0.0000
     20 H8          0.0726    0.8185    1.1142 H         1 <0>         0.0000
     21 H9         -0.2360   -0.3170   -0.2481 H         1 <0>         0.0000
     22 H10        -2.4645    2.4204    0.6925 H         1 <0>         0.0000
     23 H11        -3.4781    1.4509    1.8209 H         1 <0>         0.0000
     24 H12        -1.7838    1.8672    2.2643 H         1 <0>         0.0000
     25 H13        -1.4392   -5.9959    4.6574 H         1 <0>         0.0000
     26 H14        -0.3943   -5.1722    3.4583 H         1 <0>         0.0000
     27 H15        -2.0821   -5.5762    3.0482 H         1 <0>         0.0000
@<TRIPOS>BOND
     1    1    2 ar
     2    1    4 ar
     3    1   13 1
     4    2    5 ar
     5    2   14 1
     6    3    4 ar
     7    3   10 ar
     8    3   15 1
     9    4   12 1
    10    5   10 ar
    11    5   11 1
    12    6   11 1
    13    6   16 1
    14    6   17 1
    15    6   18 1
    16    7   11 1
    17    7   19 1
    18    7   20 1
    19    7   21 1
    20    8   11 1
    21    8   22 1
    22    8   23 1
    23    8   24 1
    24    9   12 1
    25    9   25 1
    26    9   26 1
    27    9   27 1
