@<TRIPOS>MOLECULE
*****
   19    19     0     0     0
SMALL
NO_CHARGES

@<TRIPOS>ATOM
      1 C1          0.2265   -0.4197    0.9733 C.ar      1 <0>         0.0000
      2 C2          1.6520   -0.6227    2.8997 C.ar      1 <0>         0.0000
      3 C3         -0.6317   -1.3224    1.5803 C.ar      1 <0>         0.0000
      4 C4          1.3879   -0.0684    1.6522 C.ar      1 <0>         0.0000
      5 C5          0.7299   -1.5161    3.4206 C.ar      1 <0>         0.0000
      6 C6          3.1852    2.3946   -0.5398 C.3       1 <0>         0.0000
      7 C7          2.0816    1.4511   -0.2013 C.3       1 <0>         0.0000
      8 N1         -0.4092   -1.8816    2.7908 N.ar      1 <0>         0.0000
      9 N2          2.2939    0.8458    1.0774 N.pl3     1 <0>         0.0000
     10 Br1         1.0698   -2.2856    5.1238 Br        1 <0>         0.0000
     11 H1         -0.0096   -0.0058   -0.0013 H         1 <0>         0.0000
     12 H2          2.5549   -0.3580    3.4418 H         1 <0>         0.0000
     13 H3         -1.5510   -1.6291    1.0924 H         1 <0>         0.0000
     14 H4          3.2516    3.1997    0.2000 H         1 <0>         0.0000
     15 H5          4.1455    1.8700   -0.5897 H         1 <0>         0.0000
     16 H6          2.9968    2.8504   -1.5192 H         1 <0>         0.0000
     17 H7          2.0209    0.6498   -0.9440 H         1 <0>         0.0000
     18 H8          1.1211    1.9736   -0.1674 H         1 <0>         0.0000
     19 H9          3.1169    1.0649    1.6070 H         1 <0>         0.0000
@<TRIPOS>BOND
     1    1    3 ar
     2    1    4 ar
     3    1   11 1
     4    2    4 ar
     5    2    5 ar
     6    2   12 1
     7    3    8 ar
     8    3   13 1
     9    4    9 1
    10    5    8 ar
    11    5   10 1
    12    6    7 1
    13    6   14 1
    14    6   15 1
    15    6   16 1
    16    7    9 1
    17    7   17 1
    18    7   18 1
    19    9   19 1
