@<TRIPOS>MOLECULE
*****
   26    26     0     0     0
SMALL
NO_CHARGES

@<TRIPOS>ATOM
      1 C1          1.3879   -0.0684    1.6522 C.ar      1 <0>         0.0000
      2 C2         -0.6317   -1.3224    1.5803 C.ar      1 <0>         0.0000
      3 C3          0.7299   -1.5161    3.4206 C.ar      1 <0>         0.0000
      4 C4          0.2265   -0.4197    0.9733 C.ar      1 <0>         0.0000
      5 C5          1.6520   -0.6227    2.8997 C.ar      1 <0>         0.0000
      6 C6         -1.3078    0.5422   -2.3141 C.3       1 <0>         0.0000
      7 C7          5.1727   -0.3280    3.6019 C.3       1 <0>         0.0000
      8 C8         -1.2503   -0.2072   -1.0266 C.3       1 <0>         0.0000
      9 C9          3.9325    0.0471    2.8191 C.3       1 <0>         0.0000
     10 N1         -0.4092   -1.8816    2.7908 N.ar      1 <0>         0.0000
     11 N2         -0.0671    0.1235   -0.2880 N.pl3     1 <0>         0.0000
     12 O1          2.7764   -0.2988    3.5848 O.3       1 <0>         0.0000
     13 H1          2.0898    0.6364    1.2131 H         1 <0>         0.0000
     14 H2         -1.5538   -1.6351    1.0995 H         1 <0>         0.0000
     15 H3          0.8845   -1.9791    4.3902 H         1 <0>         0.0000
     16 H4         -1.3201    1.6231   -2.1369 H         1 <0>         0.0000
     17 H5         -0.4526    0.2904   -2.9507 H         1 <0>         0.0000
     18 H6         -2.2234    0.2784   -2.8568 H         1 <0>         0.0000
     19 H7          5.2109    0.2093    4.5535 H         1 <0>         0.0000
     20 H8          5.1917   -1.4043    3.8026 H         1 <0>         0.0000
     21 H9          6.0761   -0.0953    3.0283 H         1 <0>         0.0000
     22 H10        -1.2384   -1.2856   -1.2108 H         1 <0>         0.0000
     23 H11        -2.1132    0.0335   -0.3987 H         1 <0>         0.0000
     24 H12         3.9004   -0.4938    1.8686 H         1 <0>         0.0000
     25 H13         3.9147    1.1228    2.6202 H         1 <0>         0.0000
     26 H14         0.5960    0.7720   -0.6757 H         1 <0>         0.0000
@<TRIPOS>BOND
     1    1    4 ar
     2    1    5 ar
     3    1   13 1
     4    2    4 ar
     5    2   10 ar
     6    2   14 1
     7    3    5 ar
     8    3   10 ar
     9    3   15 1
    10    4   11 1
    11    5   12 1
    12    6    8 1
    13    6   16 1
    14    6   17 1
    15    6   18 1
    16    7    9 1
    17    7   19 1
    18    7   20 1
    19    7   21 1
    20    8   11 1
    21    8   22 1
    22    8   23 1
    23    9   12 1
    24    9   24 1
    25    9   25 1
    26   11   26 1
