@<TRIPOS>MOLECULE
*****
   22    22     0     0     0
SMALL
NO_CHARGES

@<TRIPOS>ATOM
      1 C1          1.3879   -0.0684    1.6522 C.ar      1 <0>         0.0000
      2 C2         -0.6317   -1.3224    1.5803 C.ar      1 <0>         0.0000
      3 C3          0.7299   -1.5161    3.4206 C.ar      1 <0>         0.0000
      4 C4          0.2265   -0.4197    0.9733 C.ar      1 <0>         0.0000
      5 C5          1.6520   -0.6227    2.8997 C.ar      1 <0>         0.0000
      6 C6          3.6791    0.6820    5.5764 C.3       1 <0>         0.0000
      7 C7         -1.2718   -0.3140   -0.8705 C.3       1 <0>         0.0000
      8 C8          2.7064   -0.3311    5.0114 C.3       1 <0>         0.0000
      9 N1         -0.4092   -1.8816    2.7908 N.ar      1 <0>         0.0000
     10 O1         -0.0561    0.1029   -0.2453 O.3       1 <0>         0.0000
     11 O2          2.7766   -0.2982    3.5844 O.3       1 <0>         0.0000
     12 H1          2.0868    0.6365    1.2093 H         1 <0>         0.0000
     13 H2         -1.5518   -1.6334    1.0956 H         1 <0>         0.0000
     14 H3          0.8836   -1.9788    4.3906 H         1 <0>         0.0000
     15 H4          4.7037    0.4510    5.2720 H         1 <0>         0.0000
     16 H5          3.4275    1.6912    5.2342 H         1 <0>         0.0000
     17 H6          3.6300    0.6954    6.6703 H         1 <0>         0.0000
     18 H7         -1.3724    0.1810   -1.8395 H         1 <0>         0.0000
     19 H8         -2.1189   -0.0583   -0.2290 H         1 <0>         0.0000
     20 H9         -1.2427   -1.3962   -1.0181 H         1 <0>         0.0000
     21 H10         1.6836   -0.0944    5.3195 H         1 <0>         0.0000
     22 H11         2.9597   -1.3390    5.3536 H         1 <0>         0.0000
@<TRIPOS>BOND
     1    1    4 ar
     2    1    5 ar
     3    1   12 1
     4    2    4 ar
     5    2    9 ar
     6    2   13 1
     7    3    5 ar
     8    3    9 ar
     9    3   14 1
    10    4   10 1
    11    5   11 1
    12    6    8 1
    13    6   15 1
    14    6   16 1
    15    6   17 1
    16    7   10 1
    17    7   18 1
    18    7   19 1
    19    7   20 1
    20    8   11 1
    21    8   21 1
    22    8   22 1
