@<TRIPOS>MOLECULE
*****
   18    18     0     0     0
SMALL
NO_CHARGES

@<TRIPOS>ATOM
      1 C1          1.3879   -0.0684    1.6522 C.ar      1 <0>         0.0000
      2 C2          1.6520   -0.6227    2.8997 C.ar      1 <0>         0.0000
      3 C3         -0.6317   -1.3224    1.5803 C.ar      1 <0>         0.0000
      4 C4          0.2265   -0.4197    0.9733 C.ar      1 <0>         0.0000
      5 C5          0.7299   -1.5161    3.4206 C.ar      1 <0>         0.0000
      6 C6          0.1439   -3.0028    5.3369 C.3       1 <0>         0.0000
      7 N1         -0.4092   -1.8816    2.7908 N.ar      1 <0>         0.0000
      8 N2          1.0134   -2.0735    4.6923 N.pl3     1 <0>         0.0000
      9 N3         -0.0694    0.1285   -0.2998 N.pl3     1 <0>         0.0000
     10 O1          0.7351    0.9435   -0.8158 O.3       1 <0>         0.0000
     11 O2         -1.1292   -0.2139   -0.8807 O.2       1 <0>         0.0000
     12 H1          2.0952    0.6353    1.2206 H         1 <0>         0.0000
     13 H2          2.5553   -0.3535    3.4372 H         1 <0>         0.0000
     14 H3         -1.5538   -1.6367    1.1003 H         1 <0>         0.0000
     15 H4         -0.7295   -3.1978    4.7091 H         1 <0>         0.0000
     16 H5         -0.1947   -2.6011    6.2958 H         1 <0>         0.0000
     17 H6          0.6658   -3.9465    5.5169 H         1 <0>         0.0000
     18 H7          1.8640   -1.7824    5.1292 H         1 <0>         0.0000
@<TRIPOS>BOND
     1    1    2 ar
     2    1    4 ar
     3    1   12 1
     4    2    5 ar
     5    2   13 1
     6    3    4 ar
     7    3    7 ar
     8    3   14 1
     9    4    9 1
    10    5    7 ar
    11    5    8 1
    12    6    8 1
    13    6   15 1
    14    6   16 1
    15    6   17 1
    16    8   18 1
    17    9   10 1
    18    9   11 2
