@<TRIPOS>MOLECULE
*****
   34    34     0     0     0
SMALL
NO_CHARGES

@<TRIPOS>ATOM
      1 C1         -1.4873   -3.1346    2.1413 C.ar      1 <0>         0.0000
      2 C2         -1.5226   -2.0562    1.2643 C.ar      1 <0>         0.0000
      3 C3         -2.2761   -1.6944    3.8618 C.ar      1 <0>         0.0000
      4 C4         -1.8697   -2.9586    3.4665 C.ar      1 <0>         0.0000
      5 C5         -1.9447   -0.8324    1.7581 C.ar      1 <0>         0.0000
      6 C6         -2.5150   -5.0806    7.9752 C.3       1 <0>         0.0000
      7 C7         -2.9305    0.0095   -0.3615 C.3       1 <0>         0.0000
      8 C8         -0.5663    0.5924    0.2597 C.3       1 <0>         0.0000
      9 C9         -2.4696    1.6315    1.4469 C.3       1 <0>         0.0000
     10 C10        -2.0882   -5.2057    6.5195 C.3       1 <0>         0.0000
     11 C11        -2.2287   -3.8978    5.7501 C.3       1 <0>         0.0000
     12 N1         -2.3236   -0.6229    3.0388 N.ar      1 <0>         0.0000
     13 N2         -1.8444   -4.0291    4.3754 N.pl3     1 <0>         0.0000
     14 N3         -1.9788    0.3467    0.7827 N.4       1 <0>         0.0000
     15 H1         -1.1609   -4.1072    1.7823 H         1 <0>         0.0000
     16 H2         -1.2255   -2.1831    0.2286 H         1 <0>         0.0000
     17 H3         -2.5847   -1.4943    4.8835 H         1 <0>         0.0000
     18 H4         -1.9170   -4.3258    8.4957 H         1 <0>         0.0000
     19 H5         -3.5660   -4.7799    8.0350 H         1 <0>         0.0000
     20 H6         -2.4076   -6.0318    8.5057 H         1 <0>         0.0000
     21 H7         -2.9432    0.8591   -1.0467 H         1 <0>         0.0000
     22 H8         -2.5539   -0.8880   -0.8559 H         1 <0>         0.0000
     23 H9         -3.9196   -0.1640    0.0667 H         1 <0>         0.0000
     24 H10        -0.6086    1.4348   -0.4331 H         1 <0>         0.0000
     25 H11         0.0721    0.8197    1.1156 H         1 <0>         0.0000
     26 H12        -0.2349   -0.3160   -0.2469 H         1 <0>         0.0000
     27 H13        -2.4656    2.4201    0.6922 H         1 <0>         0.0000
     28 H14        -3.4794    1.4501    1.8199 H         1 <0>         0.0000
     29 H15        -1.7857    1.8673    2.2644 H         1 <0>         0.0000
     30 H16        -2.7096   -5.9689    6.0367 H         1 <0>         0.0000
     31 H17        -1.0507   -5.5577    6.4774 H         1 <0>         0.0000
     32 H18        -3.2722   -3.5675    5.7604 H         1 <0>         0.0000
     33 H19        -1.6166   -3.1071    6.1953 H         1 <0>         0.0000
     34 H20        -1.5385   -4.9212    4.0275 H         1 <0>         0.0000
@<TRIPOS>BOND
     1    1    2 ar
     2    1    4 ar
     3    1   15 1
     4    2    5 ar
     5    2   16 1
     6    3    4 ar
     7    3   12 ar
     8    3   17 1
     9    4   13 1
    10    5   12 ar
    11    5   14 1
    12    6   10 1
    13    6   18 1
    14    6   19 1
    15    6   20 1
    16    7   14 1
    17    7   21 1
    18    7   22 1
    19    7   23 1
    20    8   14 1
    21    8   24 1
    22    8   25 1
    23    8   26 1
    24    9   14 1
    25    9   27 1
    26    9   28 1
    27    9   29 1
    28   10   11 1
    29   10   30 1
    30   10   31 1
    31   11   13 1
    32   11   32 1
    33   11   33 1
    34   13   34 1
