@<TRIPOS>MOLECULE
*****
   30    30     0     0     0
SMALL
NO_CHARGES

@<TRIPOS>ATOM
      1 C1          6.9133   -0.1827   -3.3206 C.ar      1 <0>         0.0000
      2 C2          7.7209   -0.7159   -1.1069 C.ar      1 <0>         0.0000
      3 C3          5.6687    0.1506   -2.7863 C.ar      1 <0>         0.0000
      4 C4          6.4763   -0.3826   -0.5726 C.ar      1 <0>         0.0000
      5 C5          7.9394   -0.6161   -2.4809 C.ar      1 <0>         0.0000
      6 C6          5.4502    0.0507   -1.4123 C.ar      1 <0>         0.0000
      7 C7         10.3309   -1.4018   -2.3412 C.2       1 <0>         0.0000
      8 C8          3.7954    0.3487    0.4717 C.2       1 <0>         0.0000
      9 C9          2.2584    1.4061    2.1557 C.3       1 <0>         0.0000
     10 C10         2.2847    2.2584   -0.1646 C.3       1 <0>         0.0000
     11 N1         11.3832   -1.6314   -3.2174 N.am      1 <0>         0.0000
     12 N2          9.1841   -0.9499   -3.0152 N.am      1 <0>         0.0000
     13 N3          4.1859    0.3893   -0.8691 N.am      1 <0>         0.0000
     14 N4          2.8114    1.3062    0.8110 N.am      1 <0>         0.0000
     15 O1         10.4480   -1.5894   -1.1330 O.2       1 <0>         0.0000
     16 O2          4.2358   -0.4520    1.2994 O.2       1 <0>         0.0000
     17 H1          7.0719   -0.1010   -4.3928 H         1 <0>         0.0000
     18 H2          8.5135   -1.0522   -0.4433 H         1 <0>         0.0000
     19 H3          4.8765    0.4866   -3.4507 H         1 <0>         0.0000
     20 H4          6.3170   -0.4649    0.4993 H         1 <0>         0.0000
     21 H5          2.8530    2.0995    2.7560 H         1 <0>         0.0000
     22 H6          2.2647    0.4261    2.6407 H         1 <0>         0.0000
     23 H7          1.2283    1.7702    2.1147 H         1 <0>         0.0000
     24 H8          1.4120    1.8354   -0.6690 H         1 <0>         0.0000
     25 H9          3.0458    2.4915   -0.9142 H         1 <0>         0.0000
     26 H10         1.9882    3.1852    0.3338 H         1 <0>         0.0000
     27 H11        12.2688   -1.9617   -2.8489 H         1 <0>         0.0000
     28 H12        11.2908   -1.4780   -4.2158 H         1 <0>         0.0000
     29 H13         9.2910   -0.8587   -4.0310 H         1 <0>         0.0000
     30 H14         3.4815    0.6973   -1.5318 H         1 <0>         0.0000
@<TRIPOS>BOND
     1    1    3 ar
     2    1    5 ar
     3    1   17 1
     4    2    4 ar
     5    2    5 ar
     6    2   18 1
     7    3    6 ar
     8    3   19 1
     9    4    6 ar
    10    4   20 1
    11    5   12 1
    12    6   13 1
    13    7   11 am
    14    7   12 am
    15    7   15 2
    16    8   13 am
    17    8   14 am
    18    8   16 2
    19    9   14 1
    20    9   21 1
    21    9   22 1
    22    9   23 1
    23   10   14 1
    24   10   24 1
    25   10   25 1
    26   10   26 1
    27   11   27 1
    28   11   28 1
    29   12   29 1
    30   13   30 1
