@<TRIPOS>MOLECULE
*****
   23    23     0     0     0
SMALL
NO_CHARGES

@<TRIPOS>ATOM
      1 C1         -2.9132   -4.5766   -3.5927 C.ar      1 <0>         0.0000
      2 C2         -3.7047   -5.5122   -4.2497 C.ar      1 <0>         0.0000
      3 C3         -3.9691   -2.8669   -4.8649 C.ar      1 <0>         0.0000
      4 C4         -3.0418   -3.2268   -3.9003 C.ar      1 <0>         0.0000
      5 C5         -4.6024   -5.0499   -5.1986 C.ar      1 <0>         0.0000
      6 C6         -2.2670   -0.8737   -3.4478 C.2       1 <0>         0.0000
      7 C7         -1.2074    1.3132   -2.7405 C.3       1 <0>         0.0000
      8 C8         -1.2558   -0.1908   -2.5390 C.3       1 <0>         0.0000
      9 N1         -4.7555   -3.7468   -5.5243 N.ar      1 <0>         0.0000
     10 N2         -2.2508   -2.2512   -3.2482 N.am      1 <0>         0.0000
     11 N3         -5.3924   -6.0525   -5.8426 N.pl3     1 <0>         0.0000
     12 O1         -5.2252   -7.2475   -5.5158 O.3       1 <0>         0.0000
     13 O2         -2.9714   -0.2416   -4.2280 O.2       1 <0>         0.0000
     14 O3         -6.2206   -5.6966   -6.7089 O.2       1 <0>         0.0000
     15 H1         -2.1997   -4.9094   -2.8436 H         1 <0>         0.0000
     16 H2         -3.6069   -6.5669   -4.0122 H         1 <0>         0.0000
     17 H3         -4.1148   -1.8288   -5.1482 H         1 <0>         0.0000
     18 H4         -0.9459    1.5633   -3.7740 H         1 <0>         0.0000
     19 H5         -0.4591    1.7622   -2.0802 H         1 <0>         0.0000
     20 H6         -2.1773    1.7709   -2.5194 H         1 <0>         0.0000
     21 H7         -1.5192   -0.4117   -1.4982 H         1 <0>         0.0000
     22 H8         -0.2661   -0.6182   -2.7370 H         1 <0>         0.0000
     23 H9         -1.5988   -2.6124   -2.5549 H         1 <0>         0.0000
@<TRIPOS>BOND
     1    1    2 ar
     2    1    4 ar
     3    1   15 1
     4    2    5 ar
     5    2   16 1
     6    3    4 ar
     7    3    9 ar
     8    3   17 1
     9    4   10 1
    10    5    9 ar
    11    5   11 1
    12    6    8 1
    13    6   10 am
    14    6   13 2
    15    7    8 1
    16    7   18 1
    17    7   19 1
    18    7   20 1
    19    8   21 1
    20    8   22 1
    21   10   23 1
    22   11   12 1
    23   11   14 2
