@<TRIPOS>MOLECULE
*****
   15    15     0     0     0
SMALL
NO_CHARGES

@<TRIPOS>ATOM
      1 C1          0.9292   -2.1268    4.6936 C.1       1 <0>         0.0000
      2 C2          1.6520   -0.6227    2.8997 C.ar      1 <0>         0.0000
      3 C3          1.3879   -0.0684    1.6522 C.ar      1 <0>         0.0000
      4 C4         -0.6317   -1.3224    1.5803 C.ar      1 <0>         0.0000
      5 C5          0.7299   -1.5161    3.4206 C.ar      1 <0>         0.0000
      6 C6          0.2265   -0.4197    0.9733 C.ar      1 <0>         0.0000
      7 C7         -0.0767    0.1422   -0.3312 C.2       1 <0>         0.0000
      8 N1          1.0914   -2.6240    5.7296 N.1       1 <0>         0.0000
      9 N2         -0.4092   -1.8816    2.7908 N.ar      1 <0>         0.0000
     10 O1         -1.0815   -0.1109   -1.0061 O.2       1 <0>         0.0000
     11 O2          0.8817    1.0086   -0.7624 O.3       1 <0>         0.0000
     12 H1          2.5565   -0.3549    3.4364 H         1 <0>         0.0000
     13 H2          2.0920    0.6363    1.2181 H         1 <0>         0.0000
     14 H3         -1.5542   -1.6343    1.0997 H         1 <0>         0.0000
     15 H4          0.6856    1.3945   -1.6428 H         1 <0>         0.0000
@<TRIPOS>BOND
     1    1    5 1
     2    1    8 3
     3    2    3 ar
     4    2    5 ar
     5    2   12 1
     6    3    6 ar
     7    3   13 1
     8    4    6 ar
     9    4    9 ar
    10    4   14 1
    11    5    9 ar
    12    6    7 1
    13    7   10 2
    14    7   11 1
    15   11   15 1
