@<TRIPOS>MOLECULE
*****
   22    22     0     0     0
SMALL
NO_CHARGES

@<TRIPOS>ATOM
      1 C1          1.3879   -0.0684    1.6522 C.ar      1 <0>         0.0000
      2 C2         -0.6317   -1.3224    1.5803 C.ar      1 <0>         0.0000
      3 C3          0.7299   -1.5161    3.4206 C.ar      1 <0>         0.0000
      4 C4          0.2265   -0.4197    0.9733 C.ar      1 <0>         0.0000
      5 C5          1.6520   -0.6227    2.8997 C.ar      1 <0>         0.0000
      6 C6          3.2303   -0.7527    4.8676 C.2       1 <0>         0.0000
      7 C7          5.1255   -0.4682    6.4727 C.3       1 <0>         0.0000
      8 N1         -0.4092   -1.8816    2.7908 N.ar      1 <0>         0.0000
      9 N2         -0.0671    0.1231   -0.2883 N.pl3     1 <0>         0.0000
     10 N3          2.8069   -0.2900    3.6036 N.am      1 <0>         0.0000
     11 N4          4.4529   -0.1767    5.2277 N.am      1 <0>         0.0000
     12 O1          2.6294   -1.5532    5.5803 O.2       1 <0>         0.0000
     13 H1          2.0874    0.6358    1.2073 H         1 <0>         0.0000
     14 H2         -1.5546   -1.6333    1.0998 H         1 <0>         0.0000
     15 H3          0.8802   -1.9816    4.3903 H         1 <0>         0.0000
     16 H4          4.8021    0.2319    7.2474 H         1 <0>         0.0000
     17 H5          6.2080   -0.3789    6.3474 H         1 <0>         0.0000
     18 H6          4.8932   -1.4857    6.7986 H         1 <0>         0.0000
     19 H7          0.5466    0.8097   -0.6854 H         1 <0>         0.0000
     20 H8         -0.9336   -0.1098   -0.7363 H         1 <0>         0.0000
     21 H9          3.4451    0.3785    3.1570 H         1 <0>         0.0000
     22 H10         4.8880    0.4768    4.5842 H         1 <0>         0.0000
@<TRIPOS>BOND
     1    1    4 ar
     2    1    5 ar
     3    1   13 1
     4    2    4 ar
     5    2    8 ar
     6    2   14 1
     7    3    5 ar
     8    3    8 ar
     9    3   15 1
    10    4    9 1
    11    5   10 1
    12    6   10 am
    13    6   11 am
    14    6   12 2
    15    7   11 1
    16    7   16 1
    17    7   17 1
    18    7   18 1
    19    9   19 1
    20    9   20 1
    21   10   21 1
    22   11   22 1
