@<TRIPOS>MOLECULE
*****
   18    18     0     0     0
SMALL
NO_CHARGES

@<TRIPOS>ATOM
      1 C1          1.3879   -0.0684    1.6522 C.ar      1 <0>         0.0000
      2 C2          1.6520   -0.6227    2.8997 C.ar      1 <0>         0.0000
      3 C3         -0.6317   -1.3224    1.5803 C.ar      1 <0>         0.0000
      4 C4          0.2265   -0.4197    0.9733 C.ar      1 <0>         0.0000
      5 C5          0.7299   -1.5161    3.4206 C.ar      1 <0>         0.0000
      6 C6         -0.8000    1.2997   -0.2172 C.2       1 <0>         0.0000
      7 N1         -0.4092   -1.8816    2.7908 N.ar      1 <0>         0.0000
      8 N2         -1.0486    1.7707   -1.4834 N.am      1 <0>         0.0000
      9 N3          1.0500   -2.0554    4.7055 N.pl3     1 <0>         0.0000
     10 O1          2.1117   -1.6947    5.2582 O.3       1 <0>         0.0000
     11 O2         -1.1796    1.8522    0.8107 O.2       1 <0>         0.0000
     12 O3          0.2564   -2.8679    5.2279 O.2       1 <0>         0.0000
     13 O4         -0.0567    0.1043   -0.2446 O.3       1 <0>         0.0000
     14 H1          2.0902    0.6353    1.2142 H         1 <0>         0.0000
     15 H2          2.5581   -0.3513    3.4325 H         1 <0>         0.0000
     16 H3         -1.5524   -1.6327    1.0962 H         1 <0>         0.0000
     17 H4         -1.5744    2.6248   -1.6355 H         1 <0>         0.0000
     18 H5         -0.7141    1.2791   -2.3053 H         1 <0>         0.0000
@<TRIPOS>BOND
     1    1    2 ar
     2    1    4 ar
     3    1   14 1
     4    2    5 ar
     5    2   15 1
     6    3    4 ar
     7    3    7 ar
     8    3   16 1
     9    4   13 1
    10    5    7 ar
    11    5    9 1
    12    6    8 am
    13    6   11 2
    14    6   13 1
    15    8   17 1
    16    8   18 1
    17    9   10 1
    18    9   12 2
