@<TRIPOS>MOLECULE
*****
   28    28     0     0     0
SMALL
NO_CHARGES

@<TRIPOS>ATOM
      1 C1         -0.2487    1.6135   -4.7233 C.ar      1 <0>         0.0000
      2 C2          0.9053   -0.3124   -5.6155 C.ar      1 <0>         0.0000
      3 C3          0.7418    1.7571   -3.7519 C.ar      1 <0>         0.0000
      4 C4          1.8960   -0.1688   -4.6441 C.ar      1 <0>         0.0000
      5 C5         -0.1670    0.5787   -5.6551 C.ar      1 <0>         0.0000
      6 C6          1.8142    0.8660   -3.7123 C.ar      1 <0>         0.0000
      7 C7          4.0180    3.0406    0.2434 C.3       1 <0>         0.0000
      8 C8         -1.5338   -0.8332   -7.1927 C.3       1 <0>         0.0000
      9 C9          4.0199    1.9634   -0.8320 C.3       1 <0>         0.0000
     10 C10         2.8027    2.0412   -1.7457 C.3       1 <0>         0.0000
     11 N1         -1.1698    0.4330   -6.6363 N.pl3     1 <0>         0.0000
     12 N2          2.8015    1.0088   -2.7448 N.pl3     1 <0>         0.0000
     13 H1         -1.0794    2.3144   -4.7457 H         1 <0>         0.0000
     14 H2          0.9793   -1.1218   -6.3374 H         1 <0>         0.0000
     15 H3          0.6682    2.5673   -3.0308 H         1 <0>         0.0000
     16 H4          2.7277   -0.8682   -4.6225 H         1 <0>         0.0000
     17 H5          4.0037    4.0402   -0.2028 H         1 <0>         0.0000
     18 H6          3.1302    2.9398    0.8759 H         1 <0>         0.0000
     19 H7          4.8993    2.9630    0.8875 H         1 <0>         0.0000
     20 H8         -0.9302   -1.6275   -6.7457 H         1 <0>         0.0000
     21 H9         -1.3694   -0.8323   -8.2736 H         1 <0>         0.0000
     22 H10        -2.5893   -1.0419   -6.9989 H         1 <0>         0.0000
     23 H11         4.0344    0.9818   -0.3444 H         1 <0>         0.0000
     24 H12         4.9399    2.0459   -1.4228 H         1 <0>         0.0000
     25 H13         1.8862    1.9202   -1.1596 H         1 <0>         0.0000
     26 H14         2.7531    3.0059   -2.2604 H         1 <0>         0.0000
     27 H15        -1.6320    1.2687   -6.9411 H         1 <0>         0.0000
     28 H16         3.5674    0.3393   -2.7505 H         1 <0>         0.0000
@<TRIPOS>BOND
     1    1    3 ar
     2    1    5 ar
     3    1   13 1
     4    2    4 ar
     5    2    5 ar
     6    2   14 1
     7    3    6 ar
     8    3   15 1
     9    4    6 ar
    10    4   16 1
    11    5   11 1
    12    6   12 1
    13    7    9 1
    14    7   17 1
    15    7   18 1
    16    7   19 1
    17    8   11 1
    18    8   20 1
    19    8   21 1
    20    8   22 1
    21    9   10 1
    22    9   23 1
    23    9   24 1
    24   10   12 1
    25   10   25 1
    26   10   26 1
    27   11   27 1
    28   12   28 1
