@<TRIPOS>MOLECULE
*****
   19    19     0     0     0
SMALL
NO_CHARGES

@<TRIPOS>ATOM
      1 C1          1.8851   -1.0363   -0.1124 C.ar      1 <0>         0.0000
      2 C2          0.8066   -0.4630    0.5610 C.ar      1 <0>         0.0000
      3 C3          2.9210   -1.6309    0.6081 C.ar      1 <0>         0.0000
      4 C4          1.7997   -1.0786    2.6757 C.ar      1 <0>         0.0000
      5 C5          0.7638   -0.4841    1.9551 C.ar      1 <0>         0.0000
      6 C6          2.8783   -1.6520    2.0022 C.ar      1 <0>         0.0000
      7 C7         -0.3608    0.1134    2.6578 C.2       1 <0>         0.0000
      8 C8          4.9608   -2.7995    1.9540 C.3       1 <0>         0.0000
      9 O1         -0.5001    0.1509    3.8846 O.2       1 <0>         0.0000
     10 O2         -1.2799    0.6488    1.8085 O.3       1 <0>         0.0000
     11 O3          3.8888   -2.2321    2.7055 O.3       1 <0>         0.0000
     12 H1          1.9183   -1.0198   -1.1978 H         1 <0>         0.0000
     13 H2          0.0042   -0.0033   -0.0101 H         1 <0>         0.0000
     14 H3          3.7585   -2.0758    0.0778 H         1 <0>         0.0000
     15 H4          1.7710   -1.0984    3.7628 H         1 <0>         0.0000
     16 H5          5.6984   -3.2283    2.6368 H         1 <0>         0.0000
     17 H6          5.4253   -2.0250    1.3384 H         1 <0>         0.0000
     18 H7          4.5645   -3.5866    1.3082 H         1 <0>         0.0000
     19 H8         -2.0424    1.0553    2.2729 H         1 <0>         0.0000
@<TRIPOS>BOND
     1    1    2 ar
     2    1    3 ar
     3    1   12 1
     4    2    5 ar
     5    2   13 1
     6    3    6 ar
     7    3   14 1
     8    4    5 ar
     9    4    6 ar
    10    4   15 1
    11    5    7 1
    12    6   11 1
    13    7    9 2
    14    7   10 1
    15    8   11 1
    16    8   16 1
    17    8   17 1
    18    8   18 1
    19   10   19 1
