@<TRIPOS>MOLECULE
*****
   26    26     0     0     0
SMALL
NO_CHARGES

@<TRIPOS>ATOM
      1 C1         -1.8722   -2.9566    3.4692 C.ar      1 <0>         0.0000
      2 C2         -1.5169   -2.0556    1.2677 C.ar      1 <0>         0.0000
      3 C3         -2.2838   -1.6930    3.8611 C.ar      1 <0>         0.0000
      4 C4         -1.4830   -3.1330    2.1460 C.ar      1 <0>         0.0000
      5 C5         -1.9447   -0.8324    1.7581 C.ar      1 <0>         0.0000
      6 C6         -1.0429   -4.4394    1.6829 C.2       1 <0>         0.0000
      7 C7         -2.9249    0.0065   -0.3653 C.3       1 <0>         0.0000
      8 C8         -0.5651    0.5971    0.2653 C.3       1 <0>         0.0000
      9 C9         -2.4764    1.6298    1.4451 C.3       1 <0>         0.0000
     10 N1         -2.3302   -0.6225    3.0368 N.ar      1 <0>         0.0000
     11 N2         -1.9788    0.3467    0.7827 N.4       1 <0>         0.0000
     12 O1         -0.9752   -5.4596    2.3764 O.2       1 <0>         0.0000
     13 O2         -0.7004   -4.4365    0.3654 O.3       1 <0>         0.0000
     14 H1         -1.8576   -3.7759    4.1800 H         1 <0>         0.0000
     15 H2         -1.2175   -2.1722    0.2305 H         1 <0>         0.0000
     16 H3         -2.5973   -1.5029    4.8824 H         1 <0>         0.0000
     17 H4         -2.9377    0.8562   -1.0504 H         1 <0>         0.0000
     18 H5         -2.5435   -0.8897   -0.8583 H         1 <0>         0.0000
     19 H6         -3.9151   -0.1702    0.0591 H         1 <0>         0.0000
     20 H7         -0.6074    1.4394   -0.4276 H         1 <0>         0.0000
     21 H8          0.0692    0.8263    1.1237 H         1 <0>         0.0000
     22 H9         -0.2287   -0.3102   -0.2401 H         1 <0>         0.0000
     23 H10        -2.4720    2.4185    0.6906 H         1 <0>         0.0000
     24 H11        -3.4871    1.4451    1.8141 H         1 <0>         0.0000
     25 H12        -1.7964    1.8677    2.2653 H         1 <0>         0.0000
     26 H13        -0.4029   -5.3138    0.0429 H         1 <0>         0.0000
@<TRIPOS>BOND
     1    1    3 ar
     2    1    4 ar
     3    1   14 1
     4    2    4 ar
     5    2    5 ar
     6    2   15 1
     7    3   10 ar
     8    3   16 1
     9    4    6 1
    10    5   10 ar
    11    5   11 1
    12    6   12 2
    13    6   13 1
    14    7   11 1
    15    7   17 1
    16    7   18 1
    17    7   19 1
    18    8   11 1
    19    8   20 1
    20    8   21 1
    21    8   22 1
    22    9   11 1
    23    9   23 1
    24    9   24 1
    25    9   25 1
    26   13   26 1
