@<TRIPOS>MOLECULE
*****
   31    31     0     0     0
SMALL
NO_CHARGES

@<TRIPOS>ATOM
      1 C1         -1.6781   -3.1977    2.1716 C.ar      1 <0>         0.0000
      2 C2         -2.1141   -1.6918    4.0098 C.ar      1 <0>         0.0000
      3 C3         -1.7105   -2.1229    1.2832 C.ar      1 <0>         0.0000
      4 C4         -2.1465   -0.6168    3.1214 C.ar      1 <0>         0.0000
      5 C5         -1.8800   -2.9822    3.5349 C.ar      1 <0>         0.0000
      6 C6         -1.9447   -0.8324    1.7581 C.ar      1 <0>         0.0000
      7 C7         -1.6266   -5.4109    4.1363 C.2       1 <0>         0.0000
      8 C8         -1.6689   -6.2608    5.3814 C.3       1 <0>         0.0000
      9 C9         -3.0895    0.1085   -0.2363 C.3       1 <0>         0.0000
     10 C10        -0.6219    0.4523    0.0923 C.3       1 <0>         0.0000
     11 C11        -2.2570    1.6722    1.4887 C.3       1 <0>         0.0000
     12 N1         -1.8467   -4.0570    4.4236 N.am      1 <0>         0.0000
     13 N2         -1.9788    0.3467    0.7827 N.4       1 <0>         0.0000
     14 O1         -1.4158   -5.9154    3.0382 O.2       1 <0>         0.0000
     15 H1         -1.4959   -4.1995    1.7904 H         1 <0>         0.0000
     16 H2         -2.2731   -1.5117    5.0700 H         1 <0>         0.0000
     17 H3         -1.5514   -2.3011    0.2228 H         1 <0>         0.0000
     18 H4         -2.3299    0.3848    3.5016 H         1 <0>         0.0000
     19 H5         -2.6911   -6.6068    5.5589 H         1 <0>         0.0000
     20 H6         -1.3393   -5.6726    6.2425 H         1 <0>         0.0000
     21 H7         -1.0049   -7.1228    5.2676 H         1 <0>         0.0000
     22 H8         -3.1002    0.9569   -0.9230 H         1 <0>         0.0000
     23 H9         -2.8655   -0.8207   -0.7636 H         1 <0>         0.0000
     24 H10        -4.0324    0.0330    0.3088 H         1 <0>         0.0000
     25 H11        -0.6635    1.2965   -0.5985 H         1 <0>         0.0000
     26 H12         0.1338    0.6129    0.8635 H         1 <0>         0.0000
     27 H13        -0.4451   -0.4833   -0.4417 H         1 <0>         0.0000
     28 H14        -2.2656    2.4584    0.7315 H         1 <0>         0.0000
     29 H15        -3.2277    1.5910    1.9815 H         1 <0>         0.0000
     30 H16        -1.4600    1.8369    2.2163 H         1 <0>         0.0000
     31 H17        -2.0014   -3.8348    5.4139 H         1 <0>         0.0000
@<TRIPOS>BOND
     1    1    3 ar
     2    1    5 ar
     3    1   15 1
     4    2    4 ar
     5    2    5 ar
     6    2   16 1
     7    3    6 ar
     8    3   17 1
     9    4    6 ar
    10    4   18 1
    11    5   12 1
    12    6   13 1
    13    7    8 1
    14    7   12 am
    15    7   14 2
    16    8   19 1
    17    8   20 1
    18    8   21 1
    19    9   13 1
    20    9   22 1
    21    9   23 1
    22    9   24 1
    23   10   13 1
    24   10   25 1
    25   10   26 1
    26   10   27 1
    27   11   13 1
    28   11   28 1
    29   11   29 1
    30   11   30 1
    31   12   31 1
