@<TRIPOS>MOLECULE
*****
   18    18     0     0     0
SMALL
NO_CHARGES

@<TRIPOS>ATOM
      1 C1          0.2265   -0.4197    0.9733 C.ar      1 <0>         0.0000
      2 C2          1.6520   -0.6227    2.8997 C.ar      1 <0>         0.0000
      3 C3         -0.6317   -1.3224    1.5803 C.ar      1 <0>         0.0000
      4 C4          1.3879   -0.0684    1.6522 C.ar      1 <0>         0.0000
      5 C5          0.7299   -1.5161    3.4206 C.ar      1 <0>         0.0000
      6 C6          1.8866    1.8902    0.1890 C.3       1 <0>         0.0000
      7 N1         -0.4092   -1.8816    2.7908 N.ar      1 <0>         0.0000
      8 N2          1.0126   -2.0729    4.6928 N.pl3     1 <0>         0.0000
      9 N3          2.2942    0.8455    1.0773 N.pl3     1 <0>         0.0000
     10 H1         -0.0098   -0.0075   -0.0020 H         1 <0>         0.0000
     11 H2          2.5534   -0.3602    3.4459 H         1 <0>         0.0000
     12 H3         -1.5509   -1.6290    1.0924 H         1 <0>         0.0000
     13 H4          0.8038    1.8579    0.0430 H         1 <0>         0.0000
     14 H5          2.3762    1.7735   -0.7816 H         1 <0>         0.0000
     15 H6          2.1570    2.8653    0.6030 H         1 <0>         0.0000
     16 H7          1.8738   -1.8422    5.1383 H         1 <0>         0.0000
     17 H8          0.3894   -2.7537    5.0690 H         1 <0>         0.0000
     18 H9          3.2623    0.7375    1.3157 H         1 <0>         0.0000
@<TRIPOS>BOND
     1    1    3 ar
     2    1    4 ar
     3    1   10 1
     4    2    4 ar
     5    2    5 ar
     6    2   11 1
     7    3    7 ar
     8    3   12 1
     9    4    9 1
    10    5    7 ar
    11    5    8 1
    12    6    9 1
    13    6   13 1
    14    6   14 1
    15    6   15 1
    16    8   16 1
    17    8   17 1
    18    9   18 1
