@<TRIPOS>MOLECULE
*****
   25    25     0     0     0
SMALL
NO_CHARGES

@<TRIPOS>ATOM
      1 C1          0.2265   -0.4197    0.9733 C.ar      1 <0>         0.0000
      2 C2          1.6520   -0.6227    2.8997 C.ar      1 <0>         0.0000
      3 C3         -0.6317   -1.3224    1.5803 C.ar      1 <0>         0.0000
      4 C4          1.3879   -0.0684    1.6522 C.ar      1 <0>         0.0000
      5 C5          0.7299   -1.5161    3.4206 C.ar      1 <0>         0.0000
      6 C6          2.3223    0.8744    1.0586 C.2       1 <0>         0.0000
      7 C7          2.0893    2.5955   -2.1793 C.3       1 <0>         0.0000
      8 C8          0.1427   -3.0013    5.3377 C.3       1 <0>         0.0000
      9 C9          2.7302    2.2406   -0.8546 C.3       1 <0>         0.0000
     10 N1         -0.4092   -1.8816    2.7908 N.ar      1 <0>         0.0000
     11 N2          1.0124   -2.0721    4.6931 N.pl3     1 <0>         0.0000
     12 O1          3.3781    1.2432    1.5903 O.2       1 <0>         0.0000
     13 O2          1.8918    1.3063   -0.1663 O.3       1 <0>         0.0000
     14 H1         -0.0094   -0.0063   -0.0014 H         1 <0>         0.0000
     15 H2          2.5536   -0.3603    3.4457 H         1 <0>         0.0000
     16 H3         -1.5509   -1.6293    1.0923 H         1 <0>         0.0000
     17 H4          1.9697    1.7069   -2.8054 H         1 <0>         0.0000
     18 H5          1.1066    3.0524   -2.0226 H         1 <0>         0.0000
     19 H6          2.6986    3.3283   -2.7187 H         1 <0>         0.0000
     20 H7         -0.7299   -3.1974    4.7093 H         1 <0>         0.0000
     21 H8         -0.1970   -2.5988    6.2959 H         1 <0>         0.0000
     22 H9          0.6649   -3.9445    5.5191 H         1 <0>         0.0000
     23 H10         2.8469    3.1336   -0.2333 H         1 <0>         0.0000
     24 H11         3.7115    1.7835   -1.0130 H         1 <0>         0.0000
     25 H12         1.8624   -1.7803    5.1305 H         1 <0>         0.0000
@<TRIPOS>BOND
     1    1    3 ar
     2    1    4 ar
     3    1   14 1
     4    2    4 ar
     5    2    5 ar
     6    2   15 1
     7    3   10 ar
     8    3   16 1
     9    4    6 1
    10    5   10 ar
    11    5   11 1
    12    6   12 2
    13    6   13 1
    14    7    9 1
    15    7   17 1
    16    7   18 1
    17    7   19 1
    18    8   11 1
    19    8   20 1
    20    8   21 1
    21    8   22 1
    22    9   13 1
    23    9   23 1
    24    9   24 1
    25   11   25 1
