@<TRIPOS>MOLECULE
*****
   21    21     0     0     0
SMALL
NO_CHARGES

@<TRIPOS>ATOM
      1 C1          1.8851   -1.0363   -0.1124 C.ar      1 <0>         0.0000
      2 C2          2.8783   -1.6520    2.0022 C.ar      1 <0>         0.0000
      3 C3          0.8066   -0.4630    0.5610 C.ar      1 <0>         0.0000
      4 C4          1.7997   -1.0786    2.6757 C.ar      1 <0>         0.0000
      5 C5          2.9210   -1.6309    0.6081 C.ar      1 <0>         0.0000
      6 C6          0.7638   -0.4841    1.9551 C.ar      1 <0>         0.0000
      7 C7          4.0455   -2.2288   -0.0940 C.2       1 <0>         0.0000
      8 C8         -0.5391    0.1689    4.0123 C.2       1 <0>         0.0000
      9 N1         -1.7320    0.8174    4.3025 N.am      1 <0>         0.0000
     10 N2         -0.3154    0.0896    2.6277 N.am      1 <0>         0.0000
     11 O1          4.1854   -2.2667   -1.3209 O.2       1 <0>         0.0000
     12 O2          0.1911   -0.2617    4.9013 O.2       1 <0>         0.0000
     13 O3          4.9656   -2.7622    0.7557 O.3       1 <0>         0.0000
     14 H1          1.9081   -1.0148   -1.1988 H         1 <0>         0.0000
     15 H2          3.6801   -2.1126    2.5736 H         1 <0>         0.0000
     16 H3          0.0045   -0.0019   -0.0101 H         1 <0>         0.0000
     17 H4          1.7769   -1.1011    3.7624 H         1 <0>         0.0000
     18 H5         -2.0051    0.9373    5.2721 H         1 <0>         0.0000
     19 H6         -2.3378    1.1746    3.5716 H         1 <0>         0.0000
     20 H7         -1.0489    0.5126    2.0493 H         1 <0>         0.0000
     21 H8          5.7290   -3.1674    0.2916 H         1 <0>         0.0000
@<TRIPOS>BOND
     1    1    3 ar
     2    1    5 ar
     3    1   14 1
     4    2    4 ar
     5    2    5 ar
     6    2   15 1
     7    3    6 ar
     8    3   16 1
     9    4    6 ar
    10    4   17 1
    11    5    7 1
    12    6   10 1
    13    7   11 2
    14    7   13 1
    15    8    9 am
    16    8   10 am
    17    8   12 2
    18    9   18 1
    19    9   19 1
    20   10   20 1
    21   13   21 1
