@<TRIPOS>MOLECULE
*****
   14    14     0     0     0
SMALL
NO_CHARGES

@<TRIPOS>ATOM
      1 C1          0.2265   -0.4197    0.9733 C.ar      1 <0>         0.0000
      2 C2          1.6520   -0.6227    2.8997 C.ar      1 <0>         0.0000
      3 C3         -0.6317   -1.3224    1.5803 C.ar      1 <0>         0.0000
      4 C4          1.3879   -0.0684    1.6522 C.ar      1 <0>         0.0000
      5 C5          0.7299   -1.5161    3.4206 C.ar      1 <0>         0.0000
      6 N1         -0.4092   -1.8816    2.7908 N.ar      1 <0>         0.0000
      7 N2          1.0130   -2.0727    4.6927 N.pl3     1 <0>         0.0000
      8 O1          2.2620    0.8144    1.0977 O.3       1 <0>         0.0000
      9 H1         -0.0054   -0.0043   -0.0014 H         1 <0>         0.0000
     10 H2          2.5545   -0.3566    3.4417 H         1 <0>         0.0000
     11 H3         -1.5508   -1.6300    1.0925 H         1 <0>         0.0000
     12 H4          0.3439   -2.6815    5.1113 H         1 <0>         0.0000
     13 H5          1.8282   -1.7697    5.1797 H         1 <0>         0.0000
     14 H6          3.0184    0.9564    1.6893 H         1 <0>         0.0000
@<TRIPOS>BOND
     1    1    3 ar
     2    1    4 ar
     3    1    9 1
     4    2    4 ar
     5    2    5 ar
     6    2   10 1
     7    3    6 ar
     8    3   11 1
     9    4    8 1
    10    5    6 ar
    11    5    7 1
    12    7   12 1
    13    7   13 1
    14    8   14 1
