@<TRIPOS>MOLECULE
*****
   24    24     0     0     0
SMALL
NO_CHARGES

@<TRIPOS>ATOM
      1 C1          0.2265   -0.4197    0.9733 C.ar      1 <0>         0.0000
      2 C2          1.6520   -0.6227    2.8997 C.ar      1 <0>         0.0000
      3 C3         -0.6317   -1.3224    1.5803 C.ar      1 <0>         0.0000
      4 C4          1.3879   -0.0684    1.6522 C.ar      1 <0>         0.0000
      5 C5          0.7299   -1.5161    3.4206 C.ar      1 <0>         0.0000
      6 C6          0.1428   -3.0021    5.3371 C.3       1 <0>         0.0000
      7 C7          2.0258    1.4268   -0.2234 C.3       1 <0>         0.0000
      8 C8          3.5006    1.2275    1.7850 C.3       1 <0>         0.0000
      9 N1         -0.4092   -1.8816    2.7908 N.ar      1 <0>         0.0000
     10 N2          1.0126   -2.0729    4.6928 N.pl3     1 <0>         0.0000
     11 N3          2.2942    0.8455    1.0773 N.pl3     1 <0>         0.0000
     12 H1         -0.0098   -0.0075   -0.0020 H         1 <0>         0.0000
     13 H2          2.5534   -0.3602    3.4459 H         1 <0>         0.0000
     14 H3         -1.5509   -1.6290    1.0924 H         1 <0>         0.0000
     15 H4         -0.7300   -3.1975    4.7088 H         1 <0>         0.0000
     16 H5         -0.1965   -2.6000    6.2956 H         1 <0>         0.0000
     17 H6          0.6647   -3.9456    5.5179 H         1 <0>         0.0000
     18 H7          2.8335    2.1074   -0.5047 H         1 <0>         0.0000
     19 H8          1.0863    1.9857   -0.2010 H         1 <0>         0.0000
     20 H9          1.9482    0.6411   -0.9798 H         1 <0>         0.0000
     21 H10         4.0767    1.9395    1.1883 H         1 <0>         0.0000
     22 H11         4.1202    0.3475    1.9780 H         1 <0>         0.0000
     23 H12         3.2465    1.6937    2.7407 H         1 <0>         0.0000
     24 H13         1.8628   -1.7815    5.1301 H         1 <0>         0.0000
@<TRIPOS>BOND
     1    1    3 ar
     2    1    4 ar
     3    1   12 1
     4    2    4 ar
     5    2    5 ar
     6    2   13 1
     7    3    9 ar
     8    3   14 1
     9    4   11 1
    10    5    9 ar
    11    5   10 1
    12    6   10 1
    13    6   15 1
    14    6   16 1
    15    6   17 1
    16    7   11 1
    17    7   18 1
    18    7   19 1
    19    7   20 1
    20    8   11 1
    21    8   21 1
    22    8   22 1
    23    8   23 1
    24   10   24 1
