@<TRIPOS>MOLECULE
*****
   24    24     0     0     0
SMALL
NO_CHARGES

@<TRIPOS>ATOM
      1 C1          6.3635    1.0553   -1.7321 C.ar      1 <0>         0.0000
      2 C2          5.7813   -1.2871   -1.6272 C.ar      1 <0>         0.0000
      3 C3          7.6080    0.7220   -2.2668 C.ar      1 <0>         0.0000
      4 C4          7.0258   -1.6204   -2.1618 C.ar      1 <0>         0.0000
      5 C5          5.4502    0.0507   -1.4123 C.ar      1 <0>         0.0000
      6 C6          7.9391   -0.6158   -2.4816 C.ar      1 <0>         0.0000
      7 C7          3.1585   -0.4801   -0.4942 C.2       1 <0>         0.0000
      8 C8          1.2212   -0.7481    1.0842 C.3       1 <0>         0.0000
      9 C9          2.6166    1.2883    1.2126 C.3       1 <0>         0.0000
     10 N1          4.1859    0.3893   -0.8691 N.am      1 <0>         0.0000
     11 N2          2.3574    0.0034    0.5664 N.am      1 <0>         0.0000
     12 O1          2.9347   -1.5651   -1.0353 O.2       1 <0>         0.0000
     13 I1          9.7925   -1.1122   -3.2779 I         1 <0>         0.0000
     14 H1          6.1157    2.1009   -1.5689 H         1 <0>         0.0000
     15 H2          5.0771   -2.0778   -1.3815 H         1 <0>         0.0000
     16 H3          8.3053    1.5198   -2.5091 H         1 <0>         0.0000
     17 H4          7.2642   -2.6688   -2.3215 H         1 <0>         0.0000
     18 H5          1.5442   -1.4066    1.8948 H         1 <0>         0.0000
     19 H6          0.7779   -1.3571    0.2916 H         1 <0>         0.0000
     20 H7          0.4593   -0.0645    1.4685 H         1 <0>         0.0000
     21 H8          2.0673    2.0834    0.7016 H         1 <0>         0.0000
     22 H9          3.6845    1.5202    1.1781 H         1 <0>         0.0000
     23 H10         2.2984    1.2566    2.2581 H         1 <0>         0.0000
     24 H11         4.0056    1.3793   -0.7370 H         1 <0>         0.0000
@<TRIPOS>BOND
     1    1    3 ar
     2    1    5 ar
     3    1   14 1
     4    2    4 ar
     5    2    5 ar
     6    2   15 1
     7    3    6 ar
     8    3   16 1
     9    4    6 ar
    10    4   17 1
    11    5   10 1
    12    6   13 1
    13    7   10 am
    14    7   11 am
    15    7   12 2
    16    8   11 1
    17    8   18 1
    18    8   19 1
    19    8   20 1
    20    9   11 1
    21    9   21 1
    22    9   22 1
    23    9   23 1
    24   10   24 1
