@<TRIPOS>MOLECULE
*****
   22    22     0     0     0
SMALL
NO_CHARGES

@<TRIPOS>ATOM
      1 C1          1.8851   -1.0363   -0.1124 C.ar      1 <0>         0.0000
      2 C2          2.8783   -1.6520    2.0022 C.ar      1 <0>         0.0000
      3 C3          0.8066   -0.4630    0.5610 C.ar      1 <0>         0.0000
      4 C4          1.7997   -1.0786    2.6757 C.ar      1 <0>         0.0000
      5 C5          2.9210   -1.6309    0.6081 C.ar      1 <0>         0.0000
      6 C6          0.7638   -0.4841    1.9551 C.ar      1 <0>         0.0000
      7 C7          5.1247   -2.8431    0.4813 C.2       1 <0>         0.0000
      8 C8          7.3134   -3.9943   -0.0575 C.3       1 <0>         0.0000
      9 C9          6.0666   -3.3278   -0.6108 C.3       1 <0>         0.0000
     10 N1          3.9998   -2.2046   -0.0653 N.am      1 <0>         0.0000
     11 O1          5.3657   -3.0150    1.6717 O.2       1 <0>         0.0000
     12 F1         -0.2714    0.0673    2.6020 F         1 <0>         0.0000
     13 H1          1.9075   -1.0142   -1.1991 H         1 <0>         0.0000
     14 H2          3.6787   -2.1146    2.5739 H         1 <0>         0.0000
     15 H3         -0.0004   -0.0008    0.0004 H         1 <0>         0.0000
     16 H4          1.7667   -1.0938    3.7610 H         1 <0>         0.0000
     17 H5          7.8752   -3.3069    0.5836 H         1 <0>         0.0000
     18 H6          7.9689   -4.3137   -0.8735 H         1 <0>         0.0000
     19 H7          7.0561   -4.8754    0.5395 H         1 <0>         0.0000
     20 H8          5.5250   -4.0370   -1.2472 H         1 <0>         0.0000
     21 H9          6.3545   -2.4689   -1.2280 H         1 <0>         0.0000
     22 H10         3.9733   -2.1572   -1.0905 H         1 <0>         0.0000
@<TRIPOS>BOND
     1    1    3 ar
     2    1    5 ar
     3    1   13 1
     4    2    4 ar
     5    2    5 ar
     6    2   14 1
     7    3    6 ar
     8    3   15 1
     9    4    6 ar
    10    4   16 1
    11    5   10 1
    12    6   12 1
    13    7    9 1
    14    7   10 am
    15    7   11 2
    16    8    9 1
    17    8   17 1
    18    8   18 1
    19    8   19 1
    20    9   20 1
    21    9   21 1
    22   10   22 1
