@<TRIPOS>MOLECULE
*****
   23    23     0     0     0
SMALL
NO_CHARGES

@<TRIPOS>ATOM
      1 C1         -3.3187   -3.1338   -5.2597 C.ar      1 <0>         0.0000
      2 C2         -4.5748   -5.1461   -5.0885 C.ar      1 <0>         0.0000
      3 C3         -3.5650   -4.3046   -3.2043 C.ar      1 <0>         0.0000
      4 C4         -4.0991   -4.1076   -5.8728 C.ar      1 <0>         0.0000
      5 C5         -3.0418   -3.2268   -3.9003 C.ar      1 <0>         0.0000
      6 C6         -1.8910   -2.2105   -1.9041 C.2       1 <0>         0.0000
      7 C7         -0.6383   -0.8755   -0.1564 C.3       1 <0>         0.0000
      8 C8         -1.0316   -0.9879   -1.6185 C.3       1 <0>         0.0000
      9 N1         -4.3270   -5.2701   -3.7653 N.ar      1 <0>         0.0000
     10 N2         -4.3953   -4.0408   -7.2440 N.pl3     1 <0>         0.0000
     11 N3         -2.2508   -2.2512   -3.2482 N.am      1 <0>         0.0000
     12 O1         -2.1910   -3.0139   -1.0272 O.2       1 <0>         0.0000
     13 H1         -2.9254   -2.3039   -5.8426 H         1 <0>         0.0000
     14 H2         -5.1905   -5.9348   -5.5105 H         1 <0>         0.0000
     15 H3         -3.3840   -4.4317   -2.1410 H         1 <0>         0.0000
     16 H4         -1.5234   -0.8156    0.4854 H         1 <0>         0.0000
     17 H5         -0.0352    0.0227    0.0080 H         1 <0>         0.0000
     18 H6         -0.0518   -1.7441    0.1608 H         1 <0>         0.0000
     19 H7         -0.1282   -1.0461   -2.2364 H         1 <0>         0.0000
     20 H8         -1.5900   -0.0931   -1.9167 H         1 <0>         0.0000
     21 H9         -4.0784   -3.2546   -7.7799 H         1 <0>         0.0000
     22 H10        -4.9989   -4.7296   -7.6527 H         1 <0>         0.0000
     23 H11        -1.9120   -1.4976   -3.8427 H         1 <0>         0.0000
@<TRIPOS>BOND
     1    1    4 ar
     2    1    5 ar
     3    1   13 1
     4    2    4 ar
     5    2    9 ar
     6    2   14 1
     7    3    5 ar
     8    3    9 ar
     9    3   15 1
    10    4   10 1
    11    5   11 1
    12    6    8 1
    13    6   11 am
    14    6   12 2
    15    7    8 1
    16    7   16 1
    17    7   17 1
    18    7   18 1
    19    8   19 1
    20    8   20 1
    21   10   21 1
    22   10   22 1
    23   11   23 1
