@<TRIPOS>MOLECULE
*****
   23    23     0     0     0
SMALL
NO_CHARGES

@<TRIPOS>ATOM
      1 C1          1.8851   -1.0363   -0.1124 C.ar      1 <0>         0.0000
      2 C2          0.8066   -0.4630    0.5610 C.ar      1 <0>         0.0000
      3 C3          2.9210   -1.6309    0.6081 C.ar      1 <0>         0.0000
      4 C4          1.7997   -1.0786    2.6757 C.ar      1 <0>         0.0000
      5 C5          0.7638   -0.4841    1.9551 C.ar      1 <0>         0.0000
      6 C6          2.8783   -1.6520    2.0022 C.ar      1 <0>         0.0000
      7 C7         -0.3610    0.1138    2.6566 C.2       1 <0>         0.0000
      8 C8         -3.3093    1.7899    1.2432 C.3       1 <0>         0.0000
      9 C9         -2.4283    1.2668    2.3575 C.3       1 <0>         0.0000
     10 N1          3.9331   -2.2573    2.7353 N.pl3     1 <0>         0.0000
     11 O1          4.8939   -2.7672    2.1096 O.3       1 <0>         0.0000
     12 O2         -0.4833    0.1418    3.8884 O.2       1 <0>         0.0000
     13 O3          3.8754   -2.2661    3.9887 O.2       1 <0>         0.0000
     14 O4         -1.2721    0.6458    1.7854 O.3       1 <0>         0.0000
     15 H1          1.9184   -1.0197   -1.1979 H         1 <0>         0.0000
     16 H2          0.0051   -0.0021   -0.0107 H         1 <0>         0.0000
     17 H3          3.7555   -2.0743    0.0705 H         1 <0>         0.0000
     18 H4          1.7640   -1.0940    3.7631 H         1 <0>         0.0000
     19 H5         -2.7773    2.5313    0.6405 H         1 <0>         0.0000
     20 H6         -3.6343    0.9721    0.5918 H         1 <0>         0.0000
     21 H7         -4.2149    2.2507    1.6514 H         1 <0>         0.0000
     22 H8         -2.9663    0.5259    2.9564 H         1 <0>         0.0000
     23 H9         -2.1038    2.0853    3.0069 H         1 <0>         0.0000
@<TRIPOS>BOND
     1    1    2 ar
     2    1    3 ar
     3    1   15 1
     4    2    5 ar
     5    2   16 1
     6    3    6 ar
     7    3   17 1
     8    4    5 ar
     9    4    6 ar
    10    4   18 1
    11    5    7 1
    12    6   10 1
    13    7   12 2
    14    7   14 1
    15    8    9 1
    16    8   19 1
    17    8   20 1
    18    8   21 1
    19    9   14 1
    20    9   22 1
    21    9   23 1
    22   10   11 1
    23   10   13 2
