@<TRIPOS>MOLECULE
*****
   27    27     0     0     0
SMALL
NO_CHARGES

@<TRIPOS>ATOM
      1 C1          1.3879   -0.0684    1.6522 C.ar      1 <0>         0.0000
      2 C2          1.6520   -0.6227    2.8997 C.ar      1 <0>         0.0000
      3 C3         -0.6317   -1.3224    1.5803 C.ar      1 <0>         0.0000
      4 C4          0.2265   -0.4197    0.9733 C.ar      1 <0>         0.0000
      5 C5          0.7299   -1.5161    3.4206 C.ar      1 <0>         0.0000
      6 C6         -0.0776    0.1420   -0.3310 C.2       1 <0>         0.0000
      7 C7          0.4323   -3.5061    6.4887 C.3       1 <0>         0.0000
      8 C8          1.8819    2.5478   -2.3012 C.3       1 <0>         0.0000
      9 C9         -0.0099   -2.9861    5.1375 C.3       1 <0>         0.0000
     10 C10         0.7092    1.6319   -2.0225 C.3       1 <0>         0.0000
     11 N1         -0.4092   -1.8816    2.7908 N.ar      1 <0>         0.0000
     12 O1         -1.0915   -0.1251   -0.9917 O.2       1 <0>         0.0000
     13 O2          0.9678   -2.0757    4.6487 O.3       1 <0>         0.0000
     14 O3          0.8962    1.0098   -0.7467 O.3       1 <0>         0.0000
     15 H1          2.0930    0.6356    1.2183 H         1 <0>         0.0000
     16 H2          2.5534   -0.3589    3.4420 H         1 <0>         0.0000
     17 H3         -1.5538   -1.6350    1.0996 H         1 <0>         0.0000
     18 H4          1.3891   -4.0299    6.4111 H         1 <0>         0.0000
     19 H5          0.5366   -2.6833    7.2036 H         1 <0>         0.0000
     20 H6         -0.3142   -4.1931    6.9009 H         1 <0>         0.0000
     21 H7          1.9565    3.3290   -1.5396 H         1 <0>         0.0000
     22 H8          2.8185    1.9810   -2.3192 H         1 <0>         0.0000
     23 H9          1.7772    3.0208   -3.2833 H         1 <0>         0.0000
     24 H10        -0.9673   -2.4633    5.2220 H         1 <0>         0.0000
     25 H11        -0.1128   -3.8093    4.4242 H         1 <0>         0.0000
     26 H12         0.6402    0.8530   -2.7878 H         1 <0>         0.0000
     27 H13        -0.2257    2.1999   -2.0040 H         1 <0>         0.0000
@<TRIPOS>BOND
     1    1    2 ar
     2    1    4 ar
     3    1   15 1
     4    2    5 ar
     5    2   16 1
     6    3    4 ar
     7    3   11 ar
     8    3   17 1
     9    4    6 1
    10    5   11 ar
    11    5   13 1
    12    6   12 2
    13    6   14 1
    14    7    9 1
    15    7   18 1
    16    7   19 1
    17    7   20 1
    18    8   10 1
    19    8   21 1
    20    8   22 1
    21    8   23 1
    22    9   13 1
    23    9   24 1
    24    9   25 1
    25   10   14 1
    26   10   26 1
    27   10   27 1
