@<TRIPOS>MOLECULE
*****
   25    25     0     0     0
SMALL
NO_CHARGES

@<TRIPOS>ATOM
      1 C1          1.8851   -1.0363   -0.1124 C.ar      1 <0>         0.0000
      2 C2          0.8066   -0.4630    0.5610 C.ar      1 <0>         0.0000
      3 C3          2.9210   -1.6309    0.6081 C.ar      1 <0>         0.0000
      4 C4          1.7997   -1.0786    2.6757 C.ar      1 <0>         0.0000
      5 C5          0.7638   -0.4841    1.9551 C.ar      1 <0>         0.0000
      6 C6          2.8783   -1.6520    2.0022 C.ar      1 <0>         0.0000
      7 C7          3.7086   -3.6004    2.9725 C.2       1 <0>         0.0000
      8 C8         -1.4069    0.7178    1.8964 C.3       1 <0>         0.0000
      9 C9         -0.3868    0.0675    4.0839 C.3       1 <0>         0.0000
     10 N1          4.7649   -4.1168    3.6830 N.am      1 <0>         0.0000
     11 N2         -0.3262    0.0966    2.6360 N.pl3     1 <0>         0.0000
     12 O1          2.7317   -4.2529    2.6180 O.2       1 <0>         0.0000
     13 O2          3.8891   -2.2323    2.7051 O.3       1 <0>         0.0000
     14 H1          1.9186   -1.0197   -1.1979 H         1 <0>         0.0000
     15 H2          0.0054   -0.0012   -0.0105 H         1 <0>         0.0000
     16 H3          3.7582   -2.0764    0.0779 H         1 <0>         0.0000
     17 H4          1.7710   -1.0974    3.7627 H         1 <0>         0.0000
     18 H5         -2.1576    1.1107    2.5871 H         1 <0>         0.0000
     19 H6         -1.8832   -0.0133    1.2376 H         1 <0>         0.0000
     20 H7         -1.0239    1.5411    1.2875 H         1 <0>         0.0000
     21 H8         -1.2973    0.5623    4.4318 H         1 <0>         0.0000
     22 H9          0.4784    0.5836    4.5088 H         1 <0>         0.0000
     23 H10        -0.3891   -0.9657    4.4414 H         1 <0>         0.0000
     24 H11         4.7897   -5.0930    3.9578 H         1 <0>         0.0000
     25 H12         5.5524   -3.5379    3.9546 H         1 <0>         0.0000
@<TRIPOS>BOND
     1    1    2 ar
     2    1    3 ar
     3    1   14 1
     4    2    5 ar
     5    2   15 1
     6    3    6 ar
     7    3   16 1
     8    4    5 ar
     9    4    6 ar
    10    4   17 1
    11    5   11 1
    12    6   13 1
    13    7   10 am
    14    7   12 2
    15    7   13 1
    16    8   11 1
    17    8   18 1
    18    8   19 1
    19    8   20 1
    20    9   11 1
    21    9   21 1
    22    9   22 1
    23    9   23 1
    24   10   24 1
    25   10   25 1
