@<TRIPOS>MOLECULE
*****
   29    29     0     0     0
SMALL
NO_CHARGES

@<TRIPOS>ATOM
      1 C1         -3.1367   -1.4019    2.2058 C.ar      1 <0>         0.0000
      2 C2         -0.7216   -1.3371    2.1998 C.ar      1 <0>         0.0000
      3 C3         -3.1058   -2.4761    3.0949 C.ar      1 <0>         0.0000
      4 C4         -0.6906   -2.4113    3.0891 C.ar      1 <0>         0.0000
      5 C5         -1.9447   -0.8324    1.7581 C.ar      1 <0>         0.0000
      6 C6         -1.8827   -2.9808    3.5366 C.ar      1 <0>         0.0000
      7 C7         -1.8591   -3.6682    5.7624 C.2       1 <0>         0.0000
      8 C8         -2.7308    1.5026    1.4363 C.3       1 <0>         0.0000
      9 C9         -2.6752   -0.0976   -0.5006 C.3       1 <0>         0.0000
     10 C10        -0.5784    0.8355    0.4184 C.3       1 <0>         0.0000
     11 N1         -1.8274   -4.7744    6.5763 N.am      1 <0>         0.0000
     12 N2         -1.9788    0.3467    0.7827 N.4       1 <0>         0.0000
     13 O1         -1.8886   -2.5118    6.1721 O.2       1 <0>         0.0000
     14 O2         -1.8524   -4.0292    4.4039 O.3       1 <0>         0.0000
     15 H1         -4.0947   -1.0147    1.8686 H         1 <0>         0.0000
     16 H2          0.2126   -0.9007    1.8561 H         1 <0>         0.0000
     17 H3         -4.0377   -2.9151    3.4406 H         1 <0>         0.0000
     18 H4          0.2650   -2.8012    3.4288 H         1 <0>         0.0000
     19 H5         -2.7459    2.3336    0.7288 H         1 <0>         0.0000
     20 H6         -3.7425    1.1590    1.6602 H         1 <0>         0.0000
     21 H7         -2.1975    1.7743    2.3494 H         1 <0>         0.0000
     22 H8         -2.6909    0.7535   -1.1838 H         1 <0>         0.0000
     23 H9         -2.1040   -0.9278   -0.9205 H         1 <0>         0.0000
     24 H10        -3.6882   -0.4103   -0.2399 H         1 <0>         0.0000
     25 H11        -0.6864    1.6712   -0.2753 H         1 <0>         0.0000
     26 H12        -0.0846    1.1510    1.3394 H         1 <0>         0.0000
     27 H13        -0.0455    0.0047   -0.0480 H         1 <0>         0.0000
     28 H14        -1.8268   -4.6868    7.5869 H         1 <0>         0.0000
     29 H15        -1.8035   -5.7128    6.1917 H         1 <0>         0.0000
@<TRIPOS>BOND
     1    1    3 ar
     2    1    5 ar
     3    1   15 1
     4    2    4 ar
     5    2    5 ar
     6    2   16 1
     7    3    6 ar
     8    3   17 1
     9    4    6 ar
    10    4   18 1
    11    5   12 1
    12    6   14 1
    13    7   11 am
    14    7   13 2
    15    7   14 1
    16    8   12 1
    17    8   19 1
    18    8   20 1
    19    8   21 1
    20    9   12 1
    21    9   22 1
    22    9   23 1
    23    9   24 1
    24   10   12 1
    25   10   25 1
    26   10   26 1
    27   10   27 1
    28   11   28 1
    29   11   29 1
