@<TRIPOS>MOLECULE
*****
   31    31     0     0     0
SMALL
NO_CHARGES

@<TRIPOS>ATOM
      1 C1          6.2539    1.0143   -2.0112 C.ar      1 <0>         0.0000
      2 C2          7.4893    0.6524   -2.5367 C.ar      1 <0>         0.0000
      3 C3          5.9239   -1.2505   -1.3646 C.ar      1 <0>         0.0000
      4 C4          5.4502    0.0507   -1.4123 C.ar      1 <0>         0.0000
      5 C5          7.8718   -0.6757   -2.4385 C.ar      1 <0>         0.0000
      6 C6          3.2723   -0.4610   -0.2411 C.2       1 <0>         0.0000
      7 C7          9.9642   -0.0233   -3.6032 C.3       1 <0>         0.0000
      8 C8          9.6018   -2.3945   -2.9000 C.3       1 <0>         0.0000
      9 C9          1.4519   -0.5375    1.4899 C.3       1 <0>         0.0000
     10 C10         2.6362    1.5913    1.0695 C.3       1 <0>         0.0000
     11 N1          7.1182   -1.6399   -1.8640 N.ar      1 <0>         0.0000
     12 N2          4.1859    0.3893   -0.8691 N.am      1 <0>         0.0000
     13 N3          9.1328   -1.0289   -2.9800 N.pl3     1 <0>         0.0000
     14 N4          2.4787    0.1759    0.7411 N.am      1 <0>         0.0000
     15 O1          3.1346   -1.6555   -0.5136 O.2       1 <0>         0.0000
     16 H1          5.9273    2.0488   -2.0748 H         1 <0>         0.0000
     17 H2          8.1240    1.3984   -3.0044 H         1 <0>         0.0000
     18 H3          5.3418   -2.0471   -0.9110 H         1 <0>         0.0000
     19 H4         10.8936   -0.4735   -3.9615 H         1 <0>         0.0000
     20 H5         10.2085    0.7636   -2.8844 H         1 <0>         0.0000
     21 H6          9.4413    0.4268   -4.4513 H         1 <0>         0.0000
     22 H7         10.5867   -2.4814   -3.3661 H         1 <0>         0.0000
     23 H8          8.9078   -3.0633   -3.4165 H         1 <0>         0.0000
     24 H9          9.6779   -2.7075   -1.8552 H         1 <0>         0.0000
     25 H10         1.8797   -0.9650    2.4005 H         1 <0>         0.0000
     26 H11         1.0351   -1.3463    0.8836 H         1 <0>         0.0000
     27 H12         0.6438    0.1447    1.7674 H         1 <0>         0.0000
     28 H13         1.9842    2.1987    0.4364 H         1 <0>         0.0000
     29 H14         3.6719    1.9033    0.9099 H         1 <0>         0.0000
     30 H15         2.3744    1.7678    2.1162 H         1 <0>         0.0000
     31 H16         3.9119    1.3636   -0.9452 H         1 <0>         0.0000
@<TRIPOS>BOND
     1    1    2 ar
     2    1    4 ar
     3    1   16 1
     4    2    5 ar
     5    2   17 1
     6    3    4 ar
     7    3   11 ar
     8    3   18 1
     9    4   12 1
    10    5   11 ar
    11    5   13 1
    12    6   12 am
    13    6   14 am
    14    6   15 2
    15    7   13 1
    16    7   19 1
    17    7   20 1
    18    7   21 1
    19    8   13 1
    20    8   22 1
    21    8   23 1
    22    8   24 1
    23    9   14 1
    24    9   25 1
    25    9   26 1
    26    9   27 1
    27   10   14 1
    28   10   28 1
    29   10   29 1
    30   10   30 1
    31   12   31 1
