@<TRIPOS>MOLECULE
*****
   30    30     0     0     0
SMALL
NO_CHARGES

@<TRIPOS>ATOM
      1 C1         -1.4877   -3.1346    2.1418 C.ar      1 <0>         0.0000
      2 C2         -1.5236   -2.0566    1.2643 C.ar      1 <0>         0.0000
      3 C3         -2.2738   -1.6933    3.8626 C.ar      1 <0>         0.0000
      4 C4         -1.8684   -2.9579    3.4673 C.ar      1 <0>         0.0000
      5 C5         -1.9447   -0.8324    1.7581 C.ar      1 <0>         0.0000
      6 C6         -2.7071   -6.1588    4.8908 C.3       1 <0>         0.0000
      7 C7         -2.9315    0.0100   -0.3609 C.3       1 <0>         0.0000
      8 C8         -0.5665    0.5916    0.2588 C.3       1 <0>         0.0000
      9 C9         -2.4685    1.6318    1.4472 C.3       1 <0>         0.0000
     10 C10        -2.0664   -5.3014    3.8203 C.3       1 <0>         0.0000
     11 N1         -2.3219   -0.6222    3.0392 N.ar      1 <0>         0.0000
     12 N2         -1.9788    0.3467    0.7827 N.4       1 <0>         0.0000
     13 O1         -1.8431   -3.9911    4.3452 O.3       1 <0>         0.0000
     14 H1         -1.1627   -4.1088    1.7876 H         1 <0>         0.0000
     15 H2         -1.2276   -2.1852    0.2287 H         1 <0>         0.0000
     16 H3         -2.5821   -1.4977    4.8849 H         1 <0>         0.0000
     17 H4         -2.0573   -6.2398    5.7666 H         1 <0>         0.0000
     18 H5         -3.6678   -5.7349    5.2013 H         1 <0>         0.0000
     19 H6         -2.9117   -7.1644    4.5085 H         1 <0>         0.0000
     20 H7         -2.9442    0.8596   -1.0460 H         1 <0>         0.0000
     21 H8         -2.5557   -0.8877   -0.8555 H         1 <0>         0.0000
     22 H9         -3.9204   -0.1629    0.0680 H         1 <0>         0.0000
     23 H10        -0.6088    1.4340   -0.4341 H         1 <0>         0.0000
     24 H11         0.0726    0.8185    1.1142 H         1 <0>         0.0000
     25 H12        -0.2360   -0.3170   -0.2481 H         1 <0>         0.0000
     26 H13        -2.4645    2.4204    0.6925 H         1 <0>         0.0000
     27 H14        -3.4781    1.4509    1.8209 H         1 <0>         0.0000
     28 H15        -1.7838    1.8672    2.2643 H         1 <0>         0.0000
     29 H16        -2.7214   -5.2244    2.9473 H         1 <0>         0.0000
     30 H17        -1.1064   -5.7259    3.5118 H         1 <0>         0.0000
@<TRIPOS>BOND
     1    1    2 ar
     2    1    4 ar
     3    1   14 1
     4    2    5 ar
     5    2   15 1
     6    3    4 ar
     7    3   11 ar
     8    3   16 1
     9    4   13 1
    10    5   11 ar
    11    5   12 1
    12    6   10 1
    13    6   17 1
    14    6   18 1
    15    6   19 1
    16    7   12 1
    17    7   20 1
    18    7   21 1
    19    7   22 1
    20    8   12 1
    21    8   23 1
    22    8   24 1
    23    8   25 1
    24    9   12 1
    25    9   26 1
    26    9   27 1
    27    9   28 1
    28   10   13 1
    29   10   29 1
    30   10   30 1
