@<TRIPOS>MOLECULE
*****
   35    35     0     0     0
SMALL
NO_CHARGES

@<TRIPOS>ATOM
      1 C1          6.9121   -0.1821   -3.3215 C.ar      1 <0>         0.0000
      2 C2          5.6678    0.1509   -2.7864 C.ar      1 <0>         0.0000
      3 C3          7.9389   -0.6153   -2.4826 C.ar      1 <0>         0.0000
      4 C4          6.4769   -0.3825   -0.5733 C.ar      1 <0>         0.0000
      5 C5          5.4502    0.0507   -1.4123 C.ar      1 <0>         0.0000
      6 C6          7.7212   -0.7155   -1.1084 C.ar      1 <0>         0.0000
      7 C7          3.7954    0.3487    0.4717 C.2       1 <0>         0.0000
      8 C8          9.7209   -1.9080    3.3448 C.3       1 <0>         0.0000
      9 C9          2.2584    1.4061    2.1557 C.3       1 <0>         0.0000
     10 C10         2.2847    2.2584   -0.1646 C.3       1 <0>         0.0000
     11 C11         9.8828   -1.7506    1.8396 C.3       1 <0>         0.0000
     12 C12         8.6051   -1.2787    1.1559 C.3       1 <0>         0.0000
     13 N1          4.1859    0.3893   -0.8691 N.am      1 <0>         0.0000
     14 N2          8.7596   -1.1531   -0.2604 N.pl3     1 <0>         0.0000
     15 N3          2.8114    1.3062    0.8110 N.am      1 <0>         0.0000
     16 O1          4.2358   -0.4520    1.2994 O.2       1 <0>         0.0000
     17 H1          7.0814   -0.1045   -4.3917 H         1 <0>         0.0000
     18 H2          4.8755    0.4877   -3.4503 H         1 <0>         0.0000
     19 H3          8.9049   -0.8716   -2.9102 H         1 <0>         0.0000
     20 H4          6.3066   -0.4598    0.4985 H         1 <0>         0.0000
     21 H5          9.4288   -0.9606    3.8090 H         1 <0>         0.0000
     22 H6          8.9431   -2.6464    3.5647 H         1 <0>         0.0000
     23 H7         10.6494   -2.2495    3.8125 H         1 <0>         0.0000
     24 H8          2.8530    2.0995    2.7560 H         1 <0>         0.0000
     25 H9          2.2647    0.4261    2.6407 H         1 <0>         0.0000
     26 H10         1.2283    1.7702    2.1147 H         1 <0>         0.0000
     27 H11         1.4120    1.8354   -0.6690 H         1 <0>         0.0000
     28 H12         3.0458    2.4915   -0.9142 H         1 <0>         0.0000
     29 H13         1.9882    3.1852    0.3338 H         1 <0>         0.0000
     30 H14        10.1745   -2.7184    1.4156 H         1 <0>         0.0000
     31 H15        10.6998   -1.0480    1.6367 H         1 <0>         0.0000
     32 H16         7.8003   -2.0005    1.3271 H         1 <0>         0.0000
     33 H17         8.2811   -0.3084    1.5452 H         1 <0>         0.0000
     34 H18         3.4815    0.6973   -1.5318 H         1 <0>         0.0000
     35 H19         9.6353   -1.3788   -0.6933 H         1 <0>         0.0000
@<TRIPOS>BOND
     1    1    2 ar
     2    1    3 ar
     3    1   17 1
     4    2    5 ar
     5    2   18 1
     6    3    6 ar
     7    3   19 1
     8    4    5 ar
     9    4    6 ar
    10    4   20 1
    11    5   13 1
    12    6   14 1
    13    7   13 am
    14    7   15 am
    15    7   16 2
    16    8   11 1
    17    8   21 1
    18    8   22 1
    19    8   23 1
    20    9   15 1
    21    9   24 1
    22    9   25 1
    23    9   26 1
    24   10   15 1
    25   10   27 1
    26   10   28 1
    27   10   29 1
    28   11   12 1
    29   11   30 1
    30   11   31 1
    31   12   14 1
    32   12   32 1
    33   12   33 1
    34   13   34 1
    35   14   35 1
