@<TRIPOS>MOLECULE
*****
   21    21     0     0     0
SMALL
NO_CHARGES

@<TRIPOS>ATOM
      1 C1          1.8851   -1.0363   -0.1124 C.ar      1 <0>         0.0000
      2 C2          0.8066   -0.4630    0.5610 C.ar      1 <0>         0.0000
      3 C3          2.9210   -1.6309    0.6081 C.ar      1 <0>         0.0000
      4 C4          1.7997   -1.0786    2.6757 C.ar      1 <0>         0.0000
      5 C5          0.7638   -0.4841    1.9551 C.ar      1 <0>         0.0000
      6 C6          2.8783   -1.6520    2.0022 C.ar      1 <0>         0.0000
      7 C7         -0.3613    0.1139    2.6558 C.2       1 <0>         0.0000
      8 C8          5.0734   -2.8706    2.2318 C.2       1 <0>         0.0000
      9 N1          5.8747   -3.3460    3.2612 N.am      1 <0>         0.0000
     10 N2          3.9144   -2.2470    2.7228 N.am      1 <0>         0.0000
     11 O1         -1.3284    0.6645    2.1193 O.2       1 <0>         0.0000
     12 O2          5.3920   -3.0080    1.0535 O.2       1 <0>         0.0000
     13 O3         -0.2487    0.0069    4.0083 O.3       1 <0>         0.0000
     14 H1          1.9184   -1.0202   -1.1979 H         1 <0>         0.0000
     15 H2          0.0058   -0.0017   -0.0111 H         1 <0>         0.0000
     16 H3          3.7571   -2.0742    0.0729 H         1 <0>         0.0000
     17 H4          1.7669   -1.0942    3.7632 H         1 <0>         0.0000
     18 H5          6.7432   -3.8178    3.0326 H         1 <0>         0.0000
     19 H6          5.6155   -3.2346    4.2355 H         1 <0>         0.0000
     20 H7          3.8332   -2.2350    3.7448 H         1 <0>         0.0000
     21 H8         -1.0036    0.4068    4.4905 H         1 <0>         0.0000
@<TRIPOS>BOND
     1    1    2 ar
     2    1    3 ar
     3    1   14 1
     4    2    5 ar
     5    2   15 1
     6    3    6 ar
     7    3   16 1
     8    4    5 ar
     9    4    6 ar
    10    4   17 1
    11    5    7 1
    12    6   10 1
    13    7   11 2
    14    7   13 1
    15    8    9 am
    16    8   10 am
    17    8   12 2
    18    9   18 1
    19    9   19 1
    20   10   20 1
    21   13   21 1
