@<TRIPOS>MOLECULE
*****
   35    35     0     0     0
SMALL
NO_CHARGES

@<TRIPOS>ATOM
      1 C1         -2.2961   -3.1782    2.2173 C.ar      1 <0>         0.0000
      2 C2         -1.8798   -2.9828    3.5342 C.ar      1 <0>         0.0000
      3 C3         -2.3284   -2.1030    1.3293 C.ar      1 <0>         0.0000
      4 C4         -1.5285   -0.6370    3.0750 C.ar      1 <0>         0.0000
      5 C5         -1.4961   -1.7122    3.9631 C.ar      1 <0>         0.0000
      6 C6         -1.9447   -0.8324    1.7581 C.ar      1 <0>         0.0000
      7 C7         -0.4671   -3.2105    8.6480 C.3       1 <0>         0.0000
      8 C8         -3.4093    0.5293    0.2836 C.3       1 <0>         0.0000
      9 C9         -1.0323    0.0517   -0.3776 C.3       1 <0>         0.0000
     10 C10        -1.5336    1.6520    1.4389 C.3       1 <0>         0.0000
     11 C11        -0.5513   -2.0876    7.6239 C.3       1 <0>         0.0000
     12 C12        -1.0188   -2.5714    6.2565 C.3       1 <0>         0.0000
     13 N1         -1.0755   -1.5144    5.2948 N.pl3     1 <0>         0.0000
     14 N2         -1.9788    0.3467    0.7827 N.4       1 <0>         0.0000
     15 H1         -2.5948   -4.1674    1.8832 H         1 <0>         0.0000
     16 H2         -1.8587   -3.8277    4.2180 H         1 <0>         0.0000
     17 H3         -2.6535   -2.2654    0.3051 H         1 <0>         0.0000
     18 H4         -1.2298    0.3546    3.4085 H         1 <0>         0.0000
     19 H5         -1.4410   -3.6916    8.7835 H         1 <0>         0.0000
     20 H6          0.2433   -3.9731    8.3131 H         1 <0>         0.0000
     21 H7         -0.1274   -2.8395    9.6199 H         1 <0>         0.0000
     22 H8         -3.4160    1.3724   -0.4096 H         1 <0>         0.0000
     23 H9         -3.7087   -0.3933   -0.2173 H         1 <0>         0.0000
     24 H10        -4.0426    0.7287    1.1502 H         1 <0>         0.0000
     25 H11        -1.0687    0.9010   -1.0624 H         1 <0>         0.0000
     26 H12        -0.0296   -0.0781    0.0340 H         1 <0>         0.0000
     27 H13        -1.3773   -0.8615   -0.8662 H         1 <0>         0.0000
     28 H14        -1.5850    2.4394    0.6847 H         1 <0>         0.0000
     29 H15        -2.2129    1.8577    2.2683 H         1 <0>         0.0000
     30 H16        -0.5104    1.5152    1.7942 H         1 <0>         0.0000
     31 H17         0.4412   -1.6342    7.5188 H         1 <0>         0.0000
     32 H18        -1.2259   -1.3085    7.9984 H         1 <0>         0.0000
     33 H19        -0.3233   -3.3214    5.8668 H         1 <0>         0.0000
     34 H20        -2.0128   -3.0259    6.3142 H         1 <0>         0.0000
     35 H21        -0.8112   -0.5828    5.5541 H         1 <0>         0.0000
@<TRIPOS>BOND
     1    1    2 ar
     2    1    3 ar
     3    1   15 1
     4    2    5 ar
     5    2   16 1
     6    3    6 ar
     7    3   17 1
     8    4    5 ar
     9    4    6 ar
    10    4   18 1
    11    5   13 1
    12    6   14 1
    13    7   11 1
    14    7   19 1
    15    7   20 1
    16    7   21 1
    17    8   14 1
    18    8   22 1
    19    8   23 1
    20    8   24 1
    21    9   14 1
    22    9   25 1
    23    9   26 1
    24    9   27 1
    25   10   14 1
    26   10   28 1
    27   10   29 1
    28   10   30 1
    29   11   12 1
    30   11   31 1
    31   11   32 1
    32   12   13 1
    33   12   33 1
    34   12   34 1
    35   13   35 1
