@<TRIPOS>MOLECULE
*****
   28    28     0     0     0
SMALL
NO_CHARGES

@<TRIPOS>ATOM
      1 C1          2.8783   -1.6520    2.0022 C.ar      1 <0>         0.0000
      2 C2          1.7997   -1.0786    2.6757 C.ar      1 <0>         0.0000
      3 C3          1.8851   -1.0363   -0.1124 C.ar      1 <0>         0.0000
      4 C4          0.8066   -0.4630    0.5610 C.ar      1 <0>         0.0000
      5 C5          2.9210   -1.6309    0.6081 C.ar      1 <0>         0.0000
      6 C6          0.7638   -0.4841    1.9551 C.ar      1 <0>         0.0000
      7 C7          4.0631   -2.1963   -1.5217 C.3       1 <0>         0.0000
      8 C8          5.0989   -2.8199    0.6662 C.3       1 <0>         0.0000
      9 C9         -1.4079    0.7160    1.8975 C.3       1 <0>         0.0000
     10 C10        -0.3865    0.0662    4.0844 C.3       1 <0>         0.0000
     11 N1          4.0107   -2.2119   -0.0734 N.pl3     1 <0>         0.0000
     12 N2         -0.3263    0.0955    2.6364 N.pl3     1 <0>         0.0000
     13 H1          3.6806   -2.1119    2.5736 H         1 <0>         0.0000
     14 H2          1.7765   -1.1000    3.7622 H         1 <0>         0.0000
     15 H3          1.9088   -1.0131   -1.1990 H         1 <0>         0.0000
     16 H4          0.0050   -0.0022   -0.0106 H         1 <0>         0.0000
     17 H5          4.9745   -2.6891   -1.8700 H         1 <0>         0.0000
     18 H6          4.0576   -1.1664   -1.8889 H         1 <0>         0.0000
     19 H7          3.1986   -2.7211   -1.9369 H         1 <0>         0.0000
     20 H8          5.8481   -3.2151   -0.0247 H         1 <0>         0.0000
     21 H9          4.7238   -3.6396    1.2850 H         1 <0>         0.0000
     22 H10         5.5745   -2.0799    1.3155 H         1 <0>         0.0000
     23 H11        -2.1586    1.1081    2.5885 H         1 <0>         0.0000
     24 H12        -1.8839   -0.0154    1.2387 H         1 <0>         0.0000
     25 H13        -1.0259    1.5398    1.2885 H         1 <0>         0.0000
     26 H14        -1.2973    0.5601    4.4327 H         1 <0>         0.0000
     27 H15         0.4784    0.5829    4.5092 H         1 <0>         0.0000
     28 H16        -0.3878   -0.9671    4.4418 H         1 <0>         0.0000
@<TRIPOS>BOND
     1    1    2 ar
     2    1    5 ar
     3    1   13 1
     4    2    6 ar
     5    2   14 1
     6    3    4 ar
     7    3    5 ar
     8    3   15 1
     9    4    6 ar
    10    4   16 1
    11    5   11 1
    12    6   12 1
    13    7   11 1
    14    7   17 1
    15    7   18 1
    16    7   19 1
    17    8   11 1
    18    8   20 1
    19    8   21 1
    20    8   22 1
    21    9   12 1
    22    9   23 1
    23    9   24 1
    24    9   25 1
    25   10   12 1
    26   10   26 1
    27   10   27 1
    28   10   28 1
