@<TRIPOS>MOLECULE
*****
   23    23     0     0     0
SMALL
NO_CHARGES

@<TRIPOS>ATOM
      1 C1          1.8851   -1.0363   -0.1124 C.ar      1 <0>         0.0000
      2 C2          0.8066   -0.4630    0.5610 C.ar      1 <0>         0.0000
      3 C3          2.9210   -1.6309    0.6081 C.ar      1 <0>         0.0000
      4 C4          1.7997   -1.0786    2.6757 C.ar      1 <0>         0.0000
      5 C5          0.7638   -0.4841    1.9551 C.ar      1 <0>         0.0000
      6 C6          2.8783   -1.6520    2.0022 C.ar      1 <0>         0.0000
      7 C7          5.0795   -2.8697    2.2307 C.2       1 <0>         0.0000
      8 C8          7.1301   -4.0248    3.0735 C.3       1 <0>         0.0000
      9 N1         -0.3271    0.0950    2.6357 N.pl3     1 <0>         0.0000
     10 N2          3.9153   -2.2457    2.7225 N.am      1 <0>         0.0000
     11 N3          5.8743   -3.3411    3.2807 N.am      1 <0>         0.0000
     12 O1          5.3847   -2.9984    1.0475 O.2       1 <0>         0.0000
     13 H1          1.9183   -1.0200   -1.1980 H         1 <0>         0.0000
     14 H2          0.0049   -0.0019   -0.0104 H         1 <0>         0.0000
     15 H3          3.7569   -2.0735    0.0721 H         1 <0>         0.0000
     16 H4          1.7674   -1.0949    3.7630 H         1 <0>         0.0000
     17 H5          6.9623   -5.1017    2.9901 H         1 <0>         0.0000
     18 H6          7.8052   -3.8377    3.9129 H         1 <0>         0.0000
     19 H7          7.6062   -3.6707    2.1552 H         1 <0>         0.0000
     20 H8         -1.0399    0.5589    2.1096 H         1 <0>         0.0000
     21 H9         -0.3232    0.1152    3.6355 H         1 <0>         0.0000
     22 H10         3.8325   -2.2329    3.7445 H         1 <0>         0.0000
     23 H11         5.5537   -3.1961    4.2329 H         1 <0>         0.0000
@<TRIPOS>BOND
     1    1    2 ar
     2    1    3 ar
     3    1   13 1
     4    2    5 ar
     5    2   14 1
     6    3    6 ar
     7    3   15 1
     8    4    5 ar
     9    4    6 ar
    10    4   16 1
    11    5    9 1
    12    6   10 1
    13    7   10 am
    14    7   11 am
    15    7   12 2
    16    8   11 1
    17    8   17 1
    18    8   18 1
    19    8   19 1
    20    9   20 1
    21    9   21 1
    22   10   22 1
    23   11   23 1
