@<TRIPOS>MOLECULE
*****
   23    23     0     0     0
SMALL
NO_CHARGES

@<TRIPOS>ATOM
      1 C1          1.8851   -1.0363   -0.1124 C.ar      1 <0>         0.0000
      2 C2          2.8783   -1.6520    2.0022 C.ar      1 <0>         0.0000
      3 C3          0.8066   -0.4630    0.5610 C.ar      1 <0>         0.0000
      4 C4          1.7997   -1.0786    2.6757 C.ar      1 <0>         0.0000
      5 C5          2.9210   -1.6309    0.6081 C.ar      1 <0>         0.0000
      6 C6          0.7638   -0.4841    1.9551 C.ar      1 <0>         0.0000
      7 C7          4.0455   -2.2286   -0.0940 C.2       1 <0>         0.0000
      8 C8          6.9982   -3.8983    1.3178 C.3       1 <0>         0.0000
      9 C9          6.1155   -3.3770    0.2039 C.3       1 <0>         0.0000
     10 N1         -0.3267    0.0955    2.6360 N.pl3     1 <0>         0.0000
     11 O1          4.1673   -2.2562   -1.3259 O.2       1 <0>         0.0000
     12 O2          4.9583   -2.7586    0.7766 O.3       1 <0>         0.0000
     13 H1          1.9083   -1.0142   -1.1990 H         1 <0>         0.0000
     14 H2          3.6800   -2.1126    2.5737 H         1 <0>         0.0000
     15 H3          0.0047   -0.0024   -0.0104 H         1 <0>         0.0000
     16 H4          1.7764   -1.1006    3.7622 H         1 <0>         0.0000
     17 H5          7.3248   -3.0839    1.9705 H         1 <0>         0.0000
     18 H6          6.4631   -4.6404    1.9192 H         1 <0>         0.0000
     19 H7          7.8820   -4.3983    0.9078 H         1 <0>         0.0000
     20 H8          5.7925   -4.1964   -0.4451 H         1 <0>         0.0000
     21 H9          6.6514   -2.6350   -0.3954 H         1 <0>         0.0000
     22 H10        -1.0393    0.5599    2.1101 H         1 <0>         0.0000
     23 H11        -0.3225    0.1156    3.6358 H         1 <0>         0.0000
@<TRIPOS>BOND
     1    1    3 ar
     2    1    5 ar
     3    1   13 1
     4    2    4 ar
     5    2    5 ar
     6    2   14 1
     7    3    6 ar
     8    3   15 1
     9    4    6 ar
    10    4   16 1
    11    5    7 1
    12    6   10 1
    13    7   11 2
    14    7   12 1
    15    8    9 1
    16    8   17 1
    17    8   18 1
    18    8   19 1
    19    9   12 1
    20    9   20 1
    21    9   21 1
    22   10   22 1
    23   10   23 1
