@<TRIPOS>MOLECULE
*****
   33    33     0     0     0
SMALL
NO_CHARGES

@<TRIPOS>ATOM
      1 C1          7.5895   -1.0524   -1.2034 C.ar      1 <0>         0.0000
      2 C2          7.9390   -0.6166   -2.4815 C.ar      1 <0>         0.0000
      3 C3          6.3450   -0.7188   -0.6688 C.ar      1 <0>         0.0000
      4 C4          5.7997    0.4865   -2.6904 C.ar      1 <0>         0.0000
      5 C5          7.0442    0.1529   -3.2250 C.ar      1 <0>         0.0000
      6 C6          5.4502    0.0507   -1.4123 C.ar      1 <0>         0.0000
      7 C7          7.4099    0.6065   -4.5573 C.2       1 <0>         0.0000
      8 C8          3.1752    1.1453   -1.4682 C.2       1 <0>         0.0000
      9 C9          5.4388    2.6306   -6.9063 C.3       1 <0>         0.0000
     10 C10         0.6852    1.4759   -1.5496 C.3       1 <0>         0.0000
     11 C11         1.6263   -0.2957   -0.1051 C.3       1 <0>         0.0000
     12 C12         6.6508    1.8476   -6.4483 C.3       1 <0>         0.0000
     13 N1          4.1859    0.3893   -0.8691 N.am      1 <0>         0.0000
     14 N2          1.8708    0.7876   -1.0550 N.am      1 <0>         0.0000
     15 O1          8.4899    0.3583   -5.1098 O.2       1 <0>         0.0000
     16 O2          3.3750    2.0603   -2.2701 O.2       1 <0>         0.0000
     17 O3          6.4097    1.3438   -5.1301 O.3       1 <0>         0.0000
     18 H1          8.2860   -1.6518   -0.6245 H         1 <0>         0.0000
     19 H2          8.9118   -0.8819   -2.8871 H         1 <0>         0.0000
     20 H3          6.0833   -1.0634    0.3286 H         1 <0>         0.0000
     21 H4          5.1020    1.0877   -3.2699 H         1 <0>         0.0000
     22 H5          4.5502    1.9937   -6.9333 H         1 <0>         0.0000
     23 H6          5.2485    3.4748   -6.2355 H         1 <0>         0.0000
     24 H7          5.6043    3.0486   -7.9049 H         1 <0>         0.0000
     25 H8          0.3163    0.9860   -2.4544 H         1 <0>         0.0000
     26 H9          0.9231    2.5168   -1.7850 H         1 <0>         0.0000
     27 H10        -0.1044    1.4593   -0.7936 H         1 <0>         0.0000
     28 H11         1.6266    0.0931    0.9165 H         1 <0>         0.0000
     29 H12         2.4057   -1.0576   -0.1919 H         1 <0>         0.0000
     30 H13         0.6573   -0.7614   -0.3041 H         1 <0>         0.0000
     31 H14         7.5359    2.4903   -6.4236 H         1 <0>         0.0000
     32 H15         6.8390    1.0041   -7.1192 H         1 <0>         0.0000
     33 H16         3.9918    0.0418    0.0646 H         1 <0>         0.0000
@<TRIPOS>BOND
     1    1    2 ar
     2    1    3 ar
     3    1   18 1
     4    2    5 ar
     5    2   19 1
     6    3    6 ar
     7    3   20 1
     8    4    5 ar
     9    4    6 ar
    10    4   21 1
    11    5    7 1
    12    6   13 1
    13    7   15 2
    14    7   17 1
    15    8   13 am
    16    8   14 am
    17    8   16 2
    18    9   12 1
    19    9   22 1
    20    9   23 1
    21    9   24 1
    22   10   14 1
    23   10   25 1
    24   10   26 1
    25   10   27 1
    26   11   14 1
    27   11   28 1
    28   11   29 1
    29   11   30 1
    30   12   17 1
    31   12   31 1
    32   12   32 1
    33   13   33 1
