@<TRIPOS>MOLECULE
*****
   17    17     0     0     0
SMALL
NO_CHARGES

@<TRIPOS>ATOM
      1 C1          1.3879   -0.0684    1.6522 C.ar      1 <0>         0.0000
      2 C2          1.6520   -0.6227    2.8997 C.ar      1 <0>         0.0000
      3 C3         -0.6317   -1.3224    1.5803 C.ar      1 <0>         0.0000
      4 C4          0.2265   -0.4197    0.9733 C.ar      1 <0>         0.0000
      5 C5          0.7299   -1.5161    3.4206 C.ar      1 <0>         0.0000
      6 C6          0.8854    1.0273   -0.7953 C.3       1 <0>         0.0000
      7 N1         -0.4092   -1.8816    2.7908 N.ar      1 <0>         0.0000
      8 N2          1.0500   -2.0554    4.7055 N.pl3     1 <0>         0.0000
      9 O1          2.1117   -1.6947    5.2582 O.3       1 <0>         0.0000
     10 O2          0.2564   -2.8679    5.2279 O.2       1 <0>         0.0000
     11 O3         -0.0567    0.1043   -0.2446 O.3       1 <0>         0.0000
     12 H1          2.0902    0.6353    1.2142 H         1 <0>         0.0000
     13 H2          2.5581   -0.3513    3.4325 H         1 <0>         0.0000
     14 H3         -1.5524   -1.6327    1.0962 H         1 <0>         0.0000
     15 H4          0.5342    1.3682   -1.7723 H         1 <0>         0.0000
     16 H5          1.8584    0.5398   -0.8956 H         1 <0>         0.0000
     17 H6          0.9771    1.8845   -0.1241 H         1 <0>         0.0000
@<TRIPOS>BOND
     1    1    2 ar
     2    1    4 ar
     3    1   12 1
     4    2    5 ar
     5    2   13 1
     6    3    4 ar
     7    3    7 ar
     8    3   14 1
     9    4   11 1
    10    5    7 ar
    11    5    8 1
    12    6   11 1
    13    6   15 1
    14    6   16 1
    15    6   17 1
    16    8    9 1
    17    8   10 2
