@<TRIPOS>MOLECULE
*****
   31    31     0     0     0
SMALL
NO_CHARGES

@<TRIPOS>ATOM
      1 C1         -1.8692   -2.9571    3.4684 C.ar      1 <0>         0.0000
      2 C2         -1.5216   -2.0564    1.2656 C.ar      1 <0>         0.0000
      3 C3         -2.2765   -1.6927    3.8624 C.ar      1 <0>         0.0000
      4 C4         -1.4862   -3.1340    2.1435 C.ar      1 <0>         0.0000
      5 C5         -1.9447   -0.8324    1.7581 C.ar      1 <0>         0.0000
      6 C6         -0.5441   -6.7522    1.7922 C.3       1 <0>         0.0000
      7 C7         -2.9295    0.0089   -0.3622 C.3       1 <0>         0.0000
      8 C8         -0.5661    0.5933    0.2607 C.3       1 <0>         0.0000
      9 C9         -2.4709    1.6312    1.4466 C.3       1 <0>         0.0000
     10 C10        -0.9994   -5.5482    2.5443 C.3       1 <0>         0.0000
     11 N1         -2.3243   -0.6220    3.0385 N.ar      1 <0>         0.0000
     12 N2         -1.0612   -4.4005    1.6927 N.pl3     1 <0>         0.0000
     13 N3         -1.9788    0.3467    0.7827 N.4       1 <0>         0.0000
     14 H1         -1.8538   -3.7765    4.1793 H         1 <0>         0.0000
     15 H2         -1.2262   -2.1733    0.2272 H         1 <0>         0.0000
     16 H3         -2.5849   -1.5022    4.8851 H         1 <0>         0.0000
     17 H4         -1.2333   -6.9851    0.9733 H         1 <0>         0.0000
     18 H5          0.4618   -6.6011    1.3857 H         1 <0>         0.0000
     19 H6         -0.5115   -7.6189    2.4633 H         1 <0>         0.0000
     20 H7         -2.9422    0.8586   -1.0474 H         1 <0>         0.0000
     21 H8         -2.5520   -0.8883   -0.8563 H         1 <0>         0.0000
     22 H9         -3.9188   -0.1651    0.0653 H         1 <0>         0.0000
     23 H10        -0.6084    1.4357   -0.4321 H         1 <0>         0.0000
     24 H11         0.0716    0.8209    1.1171 H         1 <0>         0.0000
     25 H12        -0.2338   -0.3149   -0.2457 H         1 <0>         0.0000
     26 H13        -2.4668    2.4198    0.6919 H         1 <0>         0.0000
     27 H14        -3.4808    1.4492    1.8189 H         1 <0>         0.0000
     28 H15        -1.7876    1.8673    2.2646 H         1 <0>         0.0000
     29 H16        -0.3068   -5.3213    3.3605 H         1 <0>         0.0000
     30 H17        -1.9975   -5.7067    2.9630 H         1 <0>         0.0000
     31 H18        -0.7946   -4.4744    0.7289 H         1 <0>         0.0000
@<TRIPOS>BOND
     1    1    3 ar
     2    1    4 ar
     3    1   14 1
     4    2    4 ar
     5    2    5 ar
     6    2   15 1
     7    3   11 ar
     8    3   16 1
     9    4   12 1
    10    5   11 ar
    11    5   13 1
    12    6   10 1
    13    6   17 1
    14    6   18 1
    15    6   19 1
    16    7   13 1
    17    7   20 1
    18    7   21 1
    19    7   22 1
    20    8   13 1
    21    8   23 1
    22    8   24 1
    23    8   25 1
    24    9   13 1
    25    9   26 1
    26    9   27 1
    27    9   28 1
    28   10   12 1
    29   10   29 1
    30   10   30 1
    31   12   31 1
