@<TRIPOS>MOLECULE
*****
   30    30     0     0     0
SMALL
NO_CHARGES

@<TRIPOS>ATOM
      1 C1         -2.2972   -3.1780    2.2176 C.ar      1 <0>         0.0000
      2 C2         -1.8838   -2.9820    3.5353 C.ar      1 <0>         0.0000
      3 C3         -2.3276   -2.1032    1.3290 C.ar      1 <0>         0.0000
      4 C4         -1.5313   -0.6364    3.0759 C.ar      1 <0>         0.0000
      5 C5         -1.5009   -1.7113    3.9644 C.ar      1 <0>         0.0000
      6 C6         -1.9447   -0.8324    1.7581 C.ar      1 <0>         0.0000
      7 C7         -0.6670   -0.3249    5.8981 C.2       1 <0>         0.0000
      8 C8         -3.4091    0.5286    0.2828 C.3       1 <0>         0.0000
      9 C9         -1.0315    0.0522   -0.3770 C.3       1 <0>         0.0000
     10 C10        -1.5346    1.6522    1.4392 C.3       1 <0>         0.0000
     11 N1         -0.3302   -0.5277    7.2297 N.am      1 <0>         0.0000
     12 N2         -1.0863   -1.5158    5.2822 N.am      1 <0>         0.0000
     13 N3         -1.9788    0.3467    0.7827 N.4       1 <0>         0.0000
     14 O1         -0.5879    0.7845    5.3769 O.2       1 <0>         0.0000
     15 H1         -2.5956   -4.1676    1.8838 H         1 <0>         0.0000
     16 H2         -1.8641   -3.8268    4.2196 H         1 <0>         0.0000
     17 H3         -2.6519   -2.2664    0.3048 H         1 <0>         0.0000
     18 H4         -1.2328    0.3552    3.4091 H         1 <0>         0.0000
     19 H5         -3.4158    1.3718   -0.4104 H         1 <0>         0.0000
     20 H6         -3.7078   -0.3941   -0.2184 H         1 <0>         0.0000
     21 H7         -4.0430    0.7278    1.1490 H         1 <0>         0.0000
     22 H8         -1.0679    0.9014   -1.0618 H         1 <0>         0.0000
     23 H9         -0.0289   -0.0771    0.0351 H         1 <0>         0.0000
     24 H10        -1.3758   -0.8612   -0.8659 H         1 <0>         0.0000
     25 H11        -1.5859    2.4396    0.6850 H         1 <0>         0.0000
     26 H12        -2.2144    1.8576    2.2682 H         1 <0>         0.0000
     27 H13        -0.5115    1.5159    1.7951 H         1 <0>         0.0000
     28 H14        -0.0112    0.2603    7.7833 H         1 <0>         0.0000
     29 H15        -0.3942   -1.4421    7.6641 H         1 <0>         0.0000
     30 H16        -1.0820   -2.3397    5.8927 H         1 <0>         0.0000
@<TRIPOS>BOND
     1    1    2 ar
     2    1    3 ar
     3    1   15 1
     4    2    5 ar
     5    2   16 1
     6    3    6 ar
     7    3   17 1
     8    4    5 ar
     9    4    6 ar
    10    4   18 1
    11    5   12 1
    12    6   13 1
    13    7   11 am
    14    7   12 am
    15    7   14 2
    16    8   13 1
    17    8   19 1
    18    8   20 1
    19    8   21 1
    20    9   13 1
    21    9   22 1
    22    9   23 1
    23    9   24 1
    24   10   13 1
    25   10   25 1
    26   10   26 1
    27   10   27 1
    28   11   28 1
    29   11   29 1
    30   12   30 1
