@<TRIPOS>MOLECULE
*****
   21    22     0     0     0
SMALL
NO_CHARGES

@<TRIPOS>ATOM
      1 C1          1.8851   -1.0363   -0.1124 C.ar      1 <0>         0.0000
      2 C2          0.8066   -0.4630    0.5610 C.ar      1 <0>         0.0000
      3 C3          2.9210   -1.6309    0.6081 C.ar      1 <0>         0.0000
      4 C4          0.7638   -0.4841    1.9551 C.ar      1 <0>         0.0000
      5 C5          3.6941   -3.3420    3.5910 C.ar      1 <0>         0.0000
      6 C6          5.2551   -1.7930    2.6173 C.ar      1 <0>         0.0000
      7 C7          4.7592   -3.8978    4.2812 C.ar      1 <0>         0.0000
      8 C8          6.2503   -2.4180    3.3511 C.ar      1 <0>         0.0000
      9 C9          2.8783   -1.6520    2.0022 C.ar      1 <0>         0.0000
     10 C10         3.9553   -2.2698    2.7451 C.ar      1 <0>         0.0000
     11 C11         1.7997   -1.0786    2.6757 C.ar      1 <0>         0.0000
     12 N1          6.0351   -3.4619    4.1828 N.ar      1 <0>         0.0000
     13 F1          1.7442   -1.0891    4.0156 F         1 <0>         0.0000
     14 H1          1.9181   -1.0199   -1.1979 H         1 <0>         0.0000
     15 H2          0.0001   -0.0000   -0.0000 H         1 <0>         0.0000
     16 H3          3.7550   -2.0733    0.0685 H         1 <0>         0.0000
     17 H4         -0.0759   -0.0377    2.4795 H         1 <0>         0.0000
     18 H5          2.6927   -3.7413    3.7157 H         1 <0>         0.0000
     19 H6          5.4979   -0.9578    1.9681 H         1 <0>         0.0000
     20 H7          4.6084   -4.7365    4.9526 H         1 <0>         0.0000
     21 H8          7.2805   -2.0827    3.2880 H         1 <0>         0.0000
@<TRIPOS>BOND
     1    1    2 ar
     2    1    3 ar
     3    1   14 1
     4    2    4 ar
     5    2   15 1
     6    3    9 ar
     7    3   16 1
     8    4   11 ar
     9    4   17 1
    10    5    7 ar
    11    5   10 ar
    12    5   18 1
    13    6    8 ar
    14    6   10 ar
    15    6   19 1
    16    7   12 ar
    17    7   20 1
    18    8   12 ar
    19    8   21 1
    20    9   10 1
    21    9   11 ar
    22   11   13 1
