@<TRIPOS>MOLECULE
*****
   21    21     0     0     0
SMALL
NO_CHARGES

@<TRIPOS>ATOM
      1 C1          1.3879   -0.0684    1.6522 C.ar      1 <0>         0.0000
      2 C2          1.6520   -0.6227    2.8997 C.ar      1 <0>         0.0000
      3 C3         -0.6317   -1.3224    1.5803 C.ar      1 <0>         0.0000
      4 C4          0.2265   -0.4197    0.9733 C.ar      1 <0>         0.0000
      5 C5          0.7299   -1.5161    3.4206 C.ar      1 <0>         0.0000
      6 C6          0.8396    1.0690   -0.9156 C.3       1 <0>         0.0000
      7 C7         -1.2759   -0.2601   -0.9958 C.3       1 <0>         0.0000
      8 N1         -0.4092   -1.8816    2.7908 N.ar      1 <0>         0.0000
      9 N2         -0.0669    0.1236   -0.2880 N.pl3     1 <0>         0.0000
     10 N3          1.0502   -2.0550    4.7055 N.pl3     1 <0>         0.0000
     11 O1          2.1119   -1.6940    5.2581 O.3       1 <0>         0.0000
     12 O2          0.2568   -2.8675    5.2283 O.2       1 <0>         0.0000
     13 H1          2.0929    0.6357    1.2183 H         1 <0>         0.0000
     14 H2          2.5578   -0.3502    3.4324 H         1 <0>         0.0000
     15 H3         -1.5538   -1.6350    1.0996 H         1 <0>         0.0000
     16 H4          0.4455    1.3795   -1.8867 H         1 <0>         0.0000
     17 H5          1.8208    0.6101   -1.0643 H         1 <0>         0.0000
     18 H6          0.9587    1.9541   -0.2848 H         1 <0>         0.0000
     19 H7         -1.3321    0.2627   -1.9542 H         1 <0>         0.0000
     20 H8         -2.1583   -0.0040   -0.4031 H         1 <0>         0.0000
     21 H9         -1.2793   -1.3374   -1.1819 H         1 <0>         0.0000
@<TRIPOS>BOND
     1    1    2 ar
     2    1    4 ar
     3    1   13 1
     4    2    5 ar
     5    2   14 1
     6    3    4 ar
     7    3    8 ar
     8    3   15 1
     9    4    9 1
    10    5    8 ar
    11    5   10 1
    12    6    9 1
    13    6   16 1
    14    6   17 1
    15    6   18 1
    16    7    9 1
    17    7   19 1
    18    7   20 1
    19    7   21 1
    20   10   11 1
    21   10   12 2
