@<TRIPOS>MOLECULE
*****
   28    28     0     0     0
SMALL
NO_CHARGES

@<TRIPOS>ATOM
      1 C1         -1.8692   -2.9571    3.4684 C.ar      1 <0>         0.0000
      2 C2         -1.5216   -2.0564    1.2656 C.ar      1 <0>         0.0000
      3 C3         -2.2765   -1.6927    3.8624 C.ar      1 <0>         0.0000
      4 C4         -1.4862   -3.1340    2.1435 C.ar      1 <0>         0.0000
      5 C5         -1.9447   -0.8324    1.7581 C.ar      1 <0>         0.0000
      6 C6         -0.4087   -5.3490    2.5417 C.3       1 <0>         0.0000
      7 C7         -2.9295    0.0089   -0.3622 C.3       1 <0>         0.0000
      8 C8         -0.5661    0.5933    0.2607 C.3       1 <0>         0.0000
      9 C9         -2.4709    1.6312    1.4466 C.3       1 <0>         0.0000
     10 N1         -2.3243   -0.6220    3.0385 N.ar      1 <0>         0.0000
     11 N2         -1.0612   -4.4005    1.6927 N.pl3     1 <0>         0.0000
     12 N3         -1.9788    0.3467    0.7827 N.4       1 <0>         0.0000
     13 H1         -1.8538   -3.7765    4.1793 H         1 <0>         0.0000
     14 H2         -1.2262   -2.1733    0.2272 H         1 <0>         0.0000
     15 H3         -2.5849   -1.5022    4.8851 H         1 <0>         0.0000
     16 H4         -0.3042   -4.9409    3.5504 H         1 <0>         0.0000
     17 H5          0.5857   -5.5836    2.1522 H         1 <0>         0.0000
     18 H6         -0.9913   -6.2727    2.5944 H         1 <0>         0.0000
     19 H7         -2.9422    0.8586   -1.0474 H         1 <0>         0.0000
     20 H8         -2.5520   -0.8883   -0.8563 H         1 <0>         0.0000
     21 H9         -3.9188   -0.1651    0.0653 H         1 <0>         0.0000
     22 H10        -0.6084    1.4357   -0.4321 H         1 <0>         0.0000
     23 H11         0.0716    0.8209    1.1171 H         1 <0>         0.0000
     24 H12        -0.2338   -0.3149   -0.2457 H         1 <0>         0.0000
     25 H13        -2.4668    2.4198    0.6919 H         1 <0>         0.0000
     26 H14        -3.4808    1.4492    1.8189 H         1 <0>         0.0000
     27 H15        -1.7876    1.8673    2.2646 H         1 <0>         0.0000
     28 H16        -1.2342   -4.6223    0.7302 H         1 <0>         0.0000
@<TRIPOS>BOND
     1    1    3 ar
     2    1    4 ar
     3    1   13 1
     4    2    4 ar
     5    2    5 ar
     6    2   14 1
     7    3   10 ar
     8    3   15 1
     9    4   11 1
    10    5   10 ar
    11    5   12 1
    12    6   11 1
    13    6   16 1
    14    6   17 1
    15    6   18 1
    16    7   12 1
    17    7   19 1
    18    7   20 1
    19    7   21 1
    20    8   12 1
    21    8   22 1
    22    8   23 1
    23    8   24 1
    24    9   12 1
    25    9   25 1
    26    9   26 1
    27    9   27 1
    28   11   28 1
