@<TRIPOS>MOLECULE
*****
   35    35     0     0     0
SMALL
NO_CHARGES

@<TRIPOS>ATOM
      1 C1          6.2550    1.0138   -2.0106 C.ar      1 <0>         0.0000
      2 C2          7.4909    0.6513   -2.5344 C.ar      1 <0>         0.0000
      3 C3          5.9233   -1.2507   -1.3635 C.ar      1 <0>         0.0000
      4 C4          5.4502    0.0507   -1.4123 C.ar      1 <0>         0.0000
      5 C5          7.8728   -0.6769   -2.4352 C.ar      1 <0>         0.0000
      6 C6          3.2719   -0.4612   -0.2418 C.2       1 <0>         0.0000
      7 C7          1.4512   -0.5383    1.4888 C.3       1 <0>         0.0000
      8 C8          2.6362    1.5904    1.0701 C.3       1 <0>         0.0000
      9 C9         10.3194   -0.2661   -2.2975 C.3       1 <0>         0.0000
     10 C10         9.2366   -0.7595   -4.5109 C.3       1 <0>         0.0000
     11 C11         9.5388   -2.5501   -2.8335 C.3       1 <0>         0.0000
     12 N1          7.1182   -1.6407   -1.8613 N.ar      1 <0>         0.0000
     13 N2          4.1859    0.3893   -0.8691 N.am      1 <0>         0.0000
     14 N3          2.4783    0.1753    0.7407 N.am      1 <0>         0.0000
     15 N4          9.1653   -1.0446   -2.9858 N.4       1 <0>         0.0000
     16 O1          3.1339   -1.6554   -0.5152 O.2       1 <0>         0.0000
     17 H1          5.9278    2.0482   -2.0741 H         1 <0>         0.0000
     18 H2          8.1265    1.3951   -3.0032 H         1 <0>         0.0000
     19 H3          5.3402   -2.0464   -0.9097 H         1 <0>         0.0000
     20 H4          1.8787   -0.9665    2.3991 H         1 <0>         0.0000
     21 H5          1.0343   -1.3465    0.8818 H         1 <0>         0.0000
     22 H6          0.6432    0.1439    1.7666 H         1 <0>         0.0000
     23 H7          1.9845    2.1984    0.4373 H         1 <0>         0.0000
     24 H8          3.6720    1.9022    0.9108 H         1 <0>         0.0000
     25 H9          2.3742    1.7663    2.1169 H         1 <0>         0.0000
     26 H10        11.2575   -0.5867   -2.7544 H         1 <0>         0.0000
     27 H11        10.1474    0.7996   -2.4603 H         1 <0>         0.0000
     28 H12        10.2982   -0.5090   -1.2333 H         1 <0>         0.0000
     29 H13        10.2273   -1.0562   -4.8601 H         1 <0>         0.0000
     30 H14         8.4563   -1.3476   -4.9977 H         1 <0>         0.0000
     31 H15         9.0723    0.3096   -4.6590 H         1 <0>         0.0000
     32 H16        10.5229   -2.6971   -3.2823 H         1 <0>         0.0000
     33 H17         9.5546   -2.7843   -1.7674 H         1 <0>         0.0000
     34 H18         8.7790   -3.1371   -3.3531 H         1 <0>         0.0000
     35 H19         3.9122    1.3637   -0.9446 H         1 <0>         0.0000
@<TRIPOS>BOND
     1    1    2 ar
     2    1    4 ar
     3    1   17 1
     4    2    5 ar
     5    2   18 1
     6    3    4 ar
     7    3   12 ar
     8    3   19 1
     9    4   13 1
    10    5   12 ar
    11    5   15 1
    12    6   13 am
    13    6   14 am
    14    6   16 2
    15    7   14 1
    16    7   20 1
    17    7   21 1
    18    7   22 1
    19    8   14 1
    20    8   23 1
    21    8   24 1
    22    8   25 1
    23    9   15 1
    24    9   26 1
    25    9   27 1
    26    9   28 1
    27   10   15 1
    28   10   29 1
    29   10   30 1
    30   10   31 1
    31   11   15 1
    32   11   32 1
    33   11   33 1
    34   11   34 1
    35   13   35 1
