@<TRIPOS>MOLECULE
*****
   24    24     0     0     0
SMALL
NO_CHARGES

@<TRIPOS>ATOM
      1 C1         -0.7628   -1.2089    2.3865 C.ar      1 <0>         0.0000
      2 C2         -3.0893   -1.5607    2.0396 C.ar      1 <0>         0.0000
      3 C3         -1.9594   -2.9499    3.4788 C.ar      1 <0>         0.0000
      4 C4         -1.9447   -0.8324    1.7581 C.ar      1 <0>         0.0000
      5 C5         -0.7617   -2.2869    3.2647 C.ar      1 <0>         0.0000
      6 C6         -1.0264    0.0549   -0.3733 C.3       1 <0>         0.0000
      7 C7         -1.5589    1.6115    1.5264 C.3       1 <0>         0.0000
      8 C8         -3.3733    0.5769    0.2038 C.3       1 <0>         0.0000
      9 N1         -3.1272   -2.6135    2.8867 N.ar      1 <0>         0.0000
     10 N2         -1.9788    0.3467    0.7827 N.4       1 <0>         0.0000
     11 O1          0.3758   -2.6766    3.8913 O.3       1 <0>         0.0000
     12 H1          0.1589   -0.6661    2.1924 H         1 <0>         0.0000
     13 H2         -4.0412   -1.3151    1.5786 H         1 <0>         0.0000
     14 H3         -2.0160   -3.7980    4.1539 H         1 <0>         0.0000
     15 H4         -1.0627    0.9040   -1.0583 H         1 <0>         0.0000
     16 H5         -0.0250   -0.0715    0.0426 H         1 <0>         0.0000
     17 H6         -1.3661   -0.8595   -0.8634 H         1 <0>         0.0000
     18 H7         -1.5887    2.4411    0.8175 H         1 <0>         0.0000
     19 H8         -2.2648    1.7683    2.3441 H         1 <0>         0.0000
     20 H9         -0.5471    1.4557    1.9056 H         1 <0>         0.0000
     21 H10        -3.3158    1.4280   -0.4772 H         1 <0>         0.0000
     22 H11        -3.6692   -0.3306   -0.3259 H         1 <0>         0.0000
     23 H12        -4.0500    0.7846    1.0350 H         1 <0>         0.0000
     24 H13         0.2038   -3.4410    4.4670 H         1 <0>         0.0000
@<TRIPOS>BOND
     1    1    4 ar
     2    1    5 ar
     3    1   12 1
     4    2    4 ar
     5    2    9 ar
     6    2   13 1
     7    3    5 ar
     8    3    9 ar
     9    3   14 1
    10    4   10 1
    11    5   11 1
    12    6   10 1
    13    6   15 1
    14    6   16 1
    15    6   17 1
    16    7   10 1
    17    7   18 1
    18    7   19 1
    19    7   20 1
    20    8   10 1
    21    8   21 1
    22    8   22 1
    23    8   23 1
    24   11   24 1
