@<TRIPOS>MOLECULE
*****
   19    19     0     0     0
SMALL
NO_CHARGES

@<TRIPOS>ATOM
      1 C1          1.3879   -0.0684    1.6522 C.ar      1 <0>         0.0000
      2 C2         -0.6317   -1.3224    1.5803 C.ar      1 <0>         0.0000
      3 C3          0.7299   -1.5161    3.4206 C.ar      1 <0>         0.0000
      4 C4          0.2265   -0.4197    0.9733 C.ar      1 <0>         0.0000
      5 C5          1.6520   -0.6227    2.8997 C.ar      1 <0>         0.0000
      6 C6         -0.0781    0.1420   -0.3312 C.2       1 <0>         0.0000
      7 C7          2.8853   -0.2771    5.0410 C.3       1 <0>         0.0000
      8 N1         -0.4092   -1.8816    2.7908 N.ar      1 <0>         0.0000
      9 N2          2.8166   -0.2867    3.6093 N.pl3     1 <0>         0.0000
     10 O1         -1.0831   -0.1118   -1.0051 O.2       1 <0>         0.0000
     11 O2          0.8795    1.0089   -0.7630 O.3       1 <0>         0.0000
     12 H1          2.0869    0.6373    1.2086 H         1 <0>         0.0000
     13 H2         -1.5534   -1.6356    1.0993 H         1 <0>         0.0000
     14 H3          0.8814   -1.9816    4.3897 H         1 <0>         0.0000
     15 H4          1.9199   -0.5647    5.4655 H         1 <0>         0.0000
     16 H5          3.1438    0.7227    5.4004 H         1 <0>         0.0000
     17 H6          3.6461   -0.9817    5.3876 H         1 <0>         0.0000
     18 H7          3.6296   -0.0431    3.0707 H         1 <0>         0.0000
     19 H8          0.6826    1.3946   -1.6432 H         1 <0>         0.0000
@<TRIPOS>BOND
     1    1    4 ar
     2    1    5 ar
     3    1   12 1
     4    2    4 ar
     5    2    8 ar
     6    2   13 1
     7    3    5 ar
     8    3    8 ar
     9    3   14 1
    10    4    6 1
    11    5    9 1
    12    6   10 2
    13    6   11 1
    14    7    9 1
    15    7   15 1
    16    7   16 1
    17    7   17 1
    18    9   18 1
    19   11   19 1
