@<TRIPOS>MOLECULE
*****
   19    19     0     0     0
SMALL
NO_CHARGES

@<TRIPOS>ATOM
      1 C1          1.3879   -0.0684    1.6522 C.ar      1 <0>         0.0000
      2 C2          1.6520   -0.6227    2.8997 C.ar      1 <0>         0.0000
      3 C3         -0.6317   -1.3224    1.5803 C.ar      1 <0>         0.0000
      4 C4          0.2265   -0.4197    0.9733 C.ar      1 <0>         0.0000
      5 C5          0.7299   -1.5161    3.4206 C.ar      1 <0>         0.0000
      6 C6         -1.1830   -0.1224   -1.0958 C.2       1 <0>         0.0000
      7 N1         -0.4092   -1.8816    2.7908 N.ar      1 <0>         0.0000
      8 N2         -1.1214    0.6034   -2.2778 N.am      1 <0>         0.0000
      9 N3         -0.0653    0.1193   -0.2775 N.am      1 <0>         0.0000
     10 N4          1.0487   -2.0548    4.7061 N.pl3     1 <0>         0.0000
     11 O1          2.1097   -1.6937    5.2598 O.3       1 <0>         0.0000
     12 O2         -2.1258   -0.8701   -0.8492 O.2       1 <0>         0.0000
     13 O3          0.2546   -2.8671    5.2280 O.2       1 <0>         0.0000
     14 H1          2.0931    0.6352    1.2179 H         1 <0>         0.0000
     15 H2          2.5579   -0.3508    3.4326 H         1 <0>         0.0000
     16 H3         -1.5537   -1.6355    1.0997 H         1 <0>         0.0000
     17 H4         -1.8737    0.5125   -2.9523 H         1 <0>         0.0000
     18 H5         -0.3448    1.2220   -2.4855 H         1 <0>         0.0000
     19 H6          0.6142    0.7822   -0.6679 H         1 <0>         0.0000
@<TRIPOS>BOND
     1    1    2 ar
     2    1    4 ar
     3    1   14 1
     4    2    5 ar
     5    2   15 1
     6    3    4 ar
     7    3    7 ar
     8    3   16 1
     9    4    9 1
    10    5    7 ar
    11    5   10 1
    12    6    8 am
    13    6    9 am
    14    6   12 2
    15    8   17 1
    16    8   18 1
    17    9   19 1
    18   10   11 1
    19   10   13 2
