@<TRIPOS>MOLECULE
*****
   30    30     0     0     0
SMALL
NO_CHARGES

@<TRIPOS>ATOM
      1 C1         -2.9137   -4.5766   -3.5923 C.ar      1 <0>         0.0000
      2 C2         -3.7042   -5.5122   -4.2504 C.ar      1 <0>         0.0000
      3 C3         -3.9676   -2.8670   -4.8663 C.ar      1 <0>         0.0000
      4 C4         -3.0418   -3.2268   -3.9003 C.ar      1 <0>         0.0000
      5 C5         -4.6005   -5.0501   -5.2007 C.ar      1 <0>         0.0000
      6 C6         -5.4482   -5.9833   -5.9224 C.2       1 <0>         0.0000
      7 C7         -2.2666   -0.8738   -3.4482 C.2       1 <0>         0.0000
      8 C8         -1.2067    1.3131   -2.7412 C.3       1 <0>         0.0000
      9 C9         -7.9611   -5.2659   -8.5064 C.3       1 <0>         0.0000
     10 C10        -1.2556   -0.1908   -2.5393 C.3       1 <0>         0.0000
     11 C11        -7.1501   -6.1544   -7.5875 C.3       1 <0>         0.0000
     12 N1         -4.7530   -3.7470   -5.5268 N.ar      1 <0>         0.0000
     13 N2         -2.2508   -2.2512   -3.2482 N.am      1 <0>         0.0000
     14 O1         -5.4407   -7.2112   -5.7563 O.2       1 <0>         0.0000
     15 O2         -2.9706   -0.2418   -4.2289 O.2       1 <0>         0.0000
     16 O3         -6.2633   -5.3393   -6.8137 O.3       1 <0>         0.0000
     17 H1         -2.2013   -4.9098   -2.8419 H         1 <0>         0.0000
     18 H2         -3.6124   -6.5683   -4.0198 H         1 <0>         0.0000
     19 H3         -4.1127   -1.8288   -5.1494 H         1 <0>         0.0000
     20 H4         -0.9448    1.5628   -3.7746 H         1 <0>         0.0000
     21 H5         -0.4585    1.7621   -2.0807 H         1 <0>         0.0000
     22 H6         -2.1765    1.7711   -2.5206 H         1 <0>         0.0000
     23 H7         -8.5565   -4.5506   -7.9321 H         1 <0>         0.0000
     24 H8         -7.3052   -4.7137   -9.1874 H         1 <0>         0.0000
     25 H9         -8.6334   -5.8658   -9.1287 H         1 <0>         0.0000
     26 H10        -1.5194   -0.4114   -1.4985 H         1 <0>         0.0000
     27 H11        -0.2659   -0.6186   -2.7368 H         1 <0>         0.0000
     28 H12        -6.5571   -6.8674   -8.1681 H         1 <0>         0.0000
     29 H13        -7.8069   -6.7047   -6.9073 H         1 <0>         0.0000
     30 H14        -1.5991   -2.6123   -2.5546 H         1 <0>         0.0000
@<TRIPOS>BOND
     1    1    2 ar
     2    1    4 ar
     3    1   17 1
     4    2    5 ar
     5    2   18 1
     6    3    4 ar
     7    3   12 ar
     8    3   19 1
     9    4   13 1
    10    5    6 1
    11    5   12 ar
    12    6   14 2
    13    6   16 1
    14    7   10 1
    15    7   13 am
    16    7   15 2
    17    8   10 1
    18    8   20 1
    19    8   21 1
    20    8   22 1
    21    9   11 1
    22    9   23 1
    23    9   24 1
    24    9   25 1
    25   10   26 1
    26   10   27 1
    27   11   16 1
    28   11   28 1
    29   11   29 1
    30   13   30 1
