@<TRIPOS>MOLECULE
*****
   22    23     0     0     0
SMALL
NO_CHARGES

@<TRIPOS>ATOM
      1 C1          1.8851   -1.0363   -0.1124 C.ar      1 <0>         0.0000
      2 C2          2.8783   -1.6520    2.0022 C.ar      1 <0>         0.0000
      3 C3          0.8066   -0.4630    0.5610 C.ar      1 <0>         0.0000
      4 C4          1.7997   -1.0786    2.6757 C.ar      1 <0>         0.0000
      5 C5          4.7166   -3.3054    0.4694 C.ar      1 <0>         0.0000
      6 C6          4.4407   -1.7193   -1.3227 C.ar      1 <0>         0.0000
      7 C7          5.7855   -3.8559   -0.2233 C.ar      1 <0>         0.0000
      8 C8          5.5167   -2.3099   -1.9699 C.ar      1 <0>         0.0000
      9 C9          2.9210   -1.6309    0.6081 C.ar      1 <0>         0.0000
     10 C10         4.0398   -2.2258   -0.0901 C.ar      1 <0>         0.0000
     11 C11         0.7638   -0.4841    1.9551 C.ar      1 <0>         0.0000
     12 N1          6.1505   -3.3485   -1.4086 N.ar      1 <0>         0.0000
     13 O1         -0.2268    0.0424    2.5740 O.3       1 <0>         0.0000
     14 H1          1.9041   -1.0110   -1.1993 H         1 <0>         0.0000
     15 H2          3.6785   -2.1118    2.5774 H         1 <0>         0.0000
     16 H3          0.0110   -0.0060   -0.0255 H         1 <0>         0.0000
     17 H4          1.7906   -1.1083    3.7642 H         1 <0>         0.0000
     18 H5          4.4253   -3.7214    1.4294 H         1 <0>         0.0000
     19 H6          3.9313   -0.8776   -1.7827 H         1 <0>         0.0000
     20 H7          6.3680   -4.6938    0.1341 H         1 <0>         0.0000
     21 H8          5.8970   -1.9830   -2.9278 H         1 <0>         0.0000
     22 H9          6.9381   -3.7685   -1.9014 H         1 <0>         0.0000
@<TRIPOS>BOND
     1    1    3 ar
     2    1    9 ar
     3    1   14 1
     4    2    4 ar
     5    2    9 ar
     6    2   15 1
     7    3   11 ar
     8    3   16 1
     9    4   11 ar
    10    4   17 1
    11    5    7 ar
    12    5   10 ar
    13    5   18 1
    14    6    8 ar
    15    6   10 ar
    16    6   19 1
    17    7   12 ar
    18    7   20 1
    19    8   12 ar
    20    8   21 1
    21    9   10 1
    22   11   13 1
    23   12   22 1
