@<TRIPOS>MOLECULE
*****
   34    34     0     0     0
SMALL
NO_CHARGES

@<TRIPOS>ATOM
      1 C1         -1.8692   -2.9571    3.4684 C.ar      1 <0>         0.0000
      2 C2         -1.5216   -2.0564    1.2656 C.ar      1 <0>         0.0000
      3 C3         -2.2765   -1.6927    3.8624 C.ar      1 <0>         0.0000
      4 C4         -1.4862   -3.1340    2.1435 C.ar      1 <0>         0.0000
      5 C5         -1.9447   -0.8324    1.7581 C.ar      1 <0>         0.0000
      6 C6         -0.4398   -8.0164    2.7088 C.3       1 <0>         0.0000
      7 C7         -2.9295    0.0089   -0.3622 C.3       1 <0>         0.0000
      8 C8         -0.5661    0.5933    0.2607 C.3       1 <0>         0.0000
      9 C9         -2.4709    1.6312    1.4466 C.3       1 <0>         0.0000
     10 C10        -0.4882   -6.7850    1.8154 C.3       1 <0>         0.0000
     11 C11        -0.9994   -5.5482    2.5443 C.3       1 <0>         0.0000
     12 N1         -2.3243   -0.6220    3.0385 N.ar      1 <0>         0.0000
     13 N2         -1.0612   -4.4005    1.6927 N.pl3     1 <0>         0.0000
     14 N3         -1.9788    0.3467    0.7827 N.4       1 <0>         0.0000
     15 H1         -1.8538   -3.7765    4.1793 H         1 <0>         0.0000
     16 H2         -1.2262   -2.1733    0.2272 H         1 <0>         0.0000
     17 H3         -2.5849   -1.5022    4.8851 H         1 <0>         0.0000
     18 H4          0.2121   -7.8492    3.5721 H         1 <0>         0.0000
     19 H5         -1.4420   -8.2504    3.0821 H         1 <0>         0.0000
     20 H6         -0.0724   -8.8910    2.1633 H         1 <0>         0.0000
     21 H7         -2.9422    0.8586   -1.0474 H         1 <0>         0.0000
     22 H8         -2.5520   -0.8883   -0.8563 H         1 <0>         0.0000
     23 H9         -3.9188   -0.1651    0.0653 H         1 <0>         0.0000
     24 H10        -0.6084    1.4357   -0.4321 H         1 <0>         0.0000
     25 H11         0.0716    0.8209    1.1171 H         1 <0>         0.0000
     26 H12        -0.2338   -0.3149   -0.2457 H         1 <0>         0.0000
     27 H13        -2.4668    2.4198    0.6919 H         1 <0>         0.0000
     28 H14        -3.4808    1.4492    1.8189 H         1 <0>         0.0000
     29 H15        -1.7876    1.8673    2.2646 H         1 <0>         0.0000
     30 H16        -1.1493   -6.9941    0.9664 H         1 <0>         0.0000
     31 H17         0.5123   -6.5957    1.4087 H         1 <0>         0.0000
     32 H18        -2.0133   -5.7253    2.9166 H         1 <0>         0.0000
     33 H19        -0.3617   -5.2981    3.3981 H         1 <0>         0.0000
     34 H20        -0.7946   -4.4744    0.7289 H         1 <0>         0.0000
@<TRIPOS>BOND
     1    1    3 ar
     2    1    4 ar
     3    1   15 1
     4    2    4 ar
     5    2    5 ar
     6    2   16 1
     7    3   12 ar
     8    3   17 1
     9    4   13 1
    10    5   12 ar
    11    5   14 1
    12    6   10 1
    13    6   18 1
    14    6   19 1
    15    6   20 1
    16    7   14 1
    17    7   21 1
    18    7   22 1
    19    7   23 1
    20    8   14 1
    21    8   24 1
    22    8   25 1
    23    8   26 1
    24    9   14 1
    25    9   27 1
    26    9   28 1
    27    9   29 1
    28   10   11 1
    29   10   30 1
    30   10   31 1
    31   11   13 1
    32   11   32 1
    33   11   33 1
    34   13   34 1
