@<TRIPOS>MOLECULE
*****
   24    24     0     0     0
SMALL
NO_CHARGES

@<TRIPOS>ATOM
      1 C1          6.3769    1.0345   -1.7389 C.ar      1 <0>         0.0000
      2 C2          5.8023   -1.2710   -1.6334 C.ar      1 <0>         0.0000
      3 C3          7.8655   -0.6779   -2.4518 C.ar      1 <0>         0.0000
      4 C4          5.4502    0.0507   -1.4123 C.ar      1 <0>         0.0000
      5 C5          7.6100    0.6716   -2.2692 C.ar      1 <0>         0.0000
      6 C6          3.1585   -0.4801   -0.4942 C.2       1 <0>         0.0000
      7 C7          1.2212   -0.7481    1.0842 C.3       1 <0>         0.0000
      8 C8          2.6166    1.2883    1.2126 C.3       1 <0>         0.0000
      9 N1          6.9903   -1.6621   -2.1466 N.ar      1 <0>         0.0000
     10 N2          4.1859    0.3893   -0.8691 N.am      1 <0>         0.0000
     11 N3          2.3574    0.0034    0.5664 N.am      1 <0>         0.0000
     12 O1          2.9347   -1.5651   -1.0353 O.2       1 <0>         0.0000
     13 O2          8.5334    1.6093   -2.5959 O.3       1 <0>         0.0000
     14 H1          6.1426    2.0843   -1.5818 H         1 <0>         0.0000
     15 H2          5.1203   -2.0832   -1.3994 H         1 <0>         0.0000
     16 H3          8.8108   -1.0181   -2.8629 H         1 <0>         0.0000
     17 H4          1.5442   -1.4066    1.8948 H         1 <0>         0.0000
     18 H5          0.7779   -1.3571    0.2916 H         1 <0>         0.0000
     19 H6          0.4593   -0.0645    1.4685 H         1 <0>         0.0000
     20 H7          2.0673    2.0834    0.7016 H         1 <0>         0.0000
     21 H8          3.6845    1.5202    1.1781 H         1 <0>         0.0000
     22 H9          2.2984    1.2566    2.2581 H         1 <0>         0.0000
     23 H10         4.0056    1.3793   -0.7370 H         1 <0>         0.0000
     24 H11         8.1966    2.5012   -2.4049 H         1 <0>         0.0000
@<TRIPOS>BOND
     1    1    4 ar
     2    1    5 ar
     3    1   14 1
     4    2    4 ar
     5    2    9 ar
     6    2   15 1
     7    3    5 ar
     8    3    9 ar
     9    3   16 1
    10    4   10 1
    11    5   13 1
    12    6   10 am
    13    6   11 am
    14    6   12 2
    15    7   11 1
    16    7   17 1
    17    7   18 1
    18    7   19 1
    19    8   11 1
    20    8   20 1
    21    8   21 1
    22    8   22 1
    23   10   23 1
    24   13   24 1
