@<TRIPOS>MOLECULE
*****
   15    15     0     0     0
SMALL
NO_CHARGES

@<TRIPOS>ATOM
      1 C1          1.3879   -0.0684    1.6522 C.ar      1 <0>         0.0000
      2 C2          1.6520   -0.6227    2.8997 C.ar      1 <0>         0.0000
      3 C3         -0.6317   -1.3224    1.5803 C.ar      1 <0>         0.0000
      4 C4          0.2265   -0.4197    0.9733 C.ar      1 <0>         0.0000
      5 C5          0.7299   -1.5161    3.4206 C.ar      1 <0>         0.0000
      6 N1         -0.4092   -1.8816    2.7908 N.ar      1 <0>         0.0000
      7 N2         -0.0669    0.1236   -0.2880 N.pl3     1 <0>         0.0000
      8 N3          1.0502   -2.0550    4.7055 N.pl3     1 <0>         0.0000
      9 O1          2.1119   -1.6940    5.2581 O.3       1 <0>         0.0000
     10 O2          0.2568   -2.8675    5.2283 O.2       1 <0>         0.0000
     11 H1          2.0929    0.6357    1.2183 H         1 <0>         0.0000
     12 H2          2.5578   -0.3502    3.4324 H         1 <0>         0.0000
     13 H3         -1.5538   -1.6350    1.0996 H         1 <0>         0.0000
     14 H4          0.5468    0.8104   -0.6849 H         1 <0>         0.0000
     15 H5         -0.9334   -0.1092   -0.7364 H         1 <0>         0.0000
@<TRIPOS>BOND
     1    1    2 ar
     2    1    4 ar
     3    1   11 1
     4    2    5 ar
     5    2   12 1
     6    3    4 ar
     7    3    6 ar
     8    3   13 1
     9    4    7 1
    10    5    6 ar
    11    5    8 1
    12    7   14 1
    13    7   15 1
    14    8    9 1
    15    8   10 2
