@<TRIPOS>MOLECULE
*****
   23    24     0     0     0
SMALL
NO_CHARGES

@<TRIPOS>ATOM
      1 C1          1.8851   -1.0363   -0.1124 C.ar      1 <0>         0.0000
      2 C2          2.8783   -1.6520    2.0022 C.ar      1 <0>         0.0000
      3 C3          0.8066   -0.4630    0.5610 C.ar      1 <0>         0.0000
      4 C4          1.7997   -1.0786    2.6757 C.ar      1 <0>         0.0000
      5 C5          4.7165   -3.3050    0.4692 C.ar      1 <0>         0.0000
      6 C6          4.4404   -1.7186   -1.3225 C.ar      1 <0>         0.0000
      7 C7          5.7855   -3.8553   -0.2236 C.ar      1 <0>         0.0000
      8 C8          5.5165   -2.3089   -1.9699 C.ar      1 <0>         0.0000
      9 C9          2.9210   -1.6309    0.6081 C.ar      1 <0>         0.0000
     10 C10         4.0396   -2.2253   -0.0901 C.ar      1 <0>         0.0000
     11 C11         0.7638   -0.4841    1.9551 C.ar      1 <0>         0.0000
     12 N1          6.1504   -3.3476   -1.4088 N.ar      1 <0>         0.0000
     13 O1         -0.2883    0.0758    2.6119 O.3       1 <0>         0.0000
     14 H1          1.9042   -1.0119   -1.1994 H         1 <0>         0.0000
     15 H2          3.6780   -2.1115    2.5781 H         1 <0>         0.0000
     16 H3          0.0027   -0.0012   -0.0057 H         1 <0>         0.0000
     17 H4          1.7719   -1.0979    3.7617 H         1 <0>         0.0000
     18 H5          4.4252   -3.7213    1.4291 H         1 <0>         0.0000
     19 H6          3.9310   -0.8769   -1.7824 H         1 <0>         0.0000
     20 H7          6.3681   -4.6932    0.1336 H         1 <0>         0.0000
     21 H8          5.8968   -1.9818   -2.9278 H         1 <0>         0.0000
     22 H9          6.9380   -3.7674   -1.9017 H         1 <0>         0.0000
     23 H10        -0.1745   -0.0178    3.5712 H         1 <0>         0.0000
@<TRIPOS>BOND
     1    1    3 ar
     2    1    9 ar
     3    1   14 1
     4    2    4 ar
     5    2    9 ar
     6    2   15 1
     7    3   11 ar
     8    3   16 1
     9    4   11 ar
    10    4   17 1
    11    5    7 ar
    12    5   10 ar
    13    5   18 1
    14    6    8 ar
    15    6   10 ar
    16    6   19 1
    17    7   12 ar
    18    7   20 1
    19    8   12 ar
    20    8   21 1
    21    9   10 1
    22   11   13 1
    23   12   22 1
    24   13   23 1
