@<TRIPOS>MOLECULE
*****
   29    29     0     0     0
SMALL
NO_CHARGES

@<TRIPOS>ATOM
      1 C1         -1.8721   -2.9567    3.4690 C.ar      1 <0>         0.0000
      2 C2         -1.5171   -2.0556    1.2675 C.ar      1 <0>         0.0000
      3 C3         -2.2836   -1.6931    3.8611 C.ar      1 <0>         0.0000
      4 C4         -1.4831   -3.1331    2.1458 C.ar      1 <0>         0.0000
      5 C5         -1.9447   -0.8324    1.7581 C.ar      1 <0>         0.0000
      6 C6         -0.6337   -4.7586    0.4159 C.2       1 <0>         0.0000
      7 C7         -2.9251    0.0066   -0.3652 C.3       1 <0>         0.0000
      8 C8         -0.5651    0.5970    0.2651 C.3       1 <0>         0.0000
      9 C9         -2.4762    1.6298    1.4452 C.3       1 <0>         0.0000
     10 N1         -2.3301   -0.6226    3.0368 N.ar      1 <0>         0.0000
     11 N2         -0.2909   -6.1028    0.3591 N.am      1 <0>         0.0000
     12 N3         -1.0611   -4.3861    1.7015 N.am      1 <0>         0.0000
     13 N4         -1.9788    0.3467    0.7827 N.4       1 <0>         0.0000
     14 O1         -0.5523   -4.0322   -0.5713 O.2       1 <0>         0.0000
     15 H1         -1.8577   -3.7759    4.1800 H         1 <0>         0.0000
     16 H2         -1.2178   -2.1719    0.2302 H         1 <0>         0.0000
     17 H3         -2.5971   -1.5031    4.8824 H         1 <0>         0.0000
     18 H4         -2.9378    0.8563   -1.0503 H         1 <0>         0.0000
     19 H5         -2.5438   -0.8896   -0.8582 H         1 <0>         0.0000
     20 H6         -3.9152   -0.1700    0.0593 H         1 <0>         0.0000
     21 H7         -0.6074    1.4393   -0.4278 H         1 <0>         0.0000
     22 H8          0.0693    0.8261    1.1235 H         1 <0>         0.0000
     23 H9         -0.2289   -0.3104   -0.2403 H         1 <0>         0.0000
     24 H10        -2.4718    2.4185    0.6906 H         1 <0>         0.0000
     25 H11        -3.4869    1.4452    1.8143 H         1 <0>         0.0000
     26 H12        -1.7961    1.8677    2.2653 H         1 <0>         0.0000
     27 H13         0.0341   -6.4923   -0.5194 H         1 <0>         0.0000
     28 H14        -0.3564   -6.7061    1.1719 H         1 <0>         0.0000
     29 H15        -1.0565   -5.1445    2.3918 H         1 <0>         0.0000
@<TRIPOS>BOND
     1    1    3 ar
     2    1    4 ar
     3    1   15 1
     4    2    4 ar
     5    2    5 ar
     6    2   16 1
     7    3   10 ar
     8    3   17 1
     9    4   12 1
    10    5   10 ar
    11    5   13 1
    12    6   11 am
    13    6   12 am
    14    6   14 2
    15    7   13 1
    16    7   18 1
    17    7   19 1
    18    7   20 1
    19    8   13 1
    20    8   21 1
    21    8   22 1
    22    8   23 1
    23    9   13 1
    24    9   24 1
    25    9   25 1
    26    9   26 1
    27   11   27 1
    28   11   28 1
    29   12   29 1
