@<TRIPOS>MOLECULE
*****
   29    29     0     0     0
SMALL
NO_CHARGES

@<TRIPOS>ATOM
      1 C1          0.9872    1.4546   -5.8630 C.ar      1 <0>         0.0000
      2 C2          1.9670    1.5872   -4.8855 C.ar      1 <0>         0.0000
      3 C3         -0.1601   -0.0611   -4.4338 C.ar      1 <0>         0.0000
      4 C4         -0.0999    0.6168   -5.6407 C.ar      1 <0>         0.0000
      5 C5          1.8142    0.8660   -3.7123 C.ar      1 <0>         0.0000
      6 C6          3.9927   -0.0361    0.7232 C.3       1 <0>         0.0000
      7 C7         -2.7828    1.5510   -7.8555 C.3       1 <0>         0.0000
      8 C8          3.9876    0.6948   -0.6119 C.3       1 <0>         0.0000
      9 C9          2.7879    0.3306   -1.4783 C.3       1 <0>         0.0000
     10 C10        -1.3292    1.5812   -7.4336 C.3       1 <0>         0.0000
     11 N1          0.7723    0.0423   -3.4604 N.ar      1 <0>         0.0000
     12 N2          2.8015    1.0088   -2.7448 N.pl3     1 <0>         0.0000
     13 O1         -1.0701    0.4676   -6.5762 O.3       1 <0>         0.0000
     14 H1          1.0757    2.0059   -6.7949 H         1 <0>         0.0000
     15 H2          2.8189    2.2387   -5.0504 H         1 <0>         0.0000
     16 H3         -0.9855   -0.7284   -4.2064 H         1 <0>         0.0000
     17 H4          3.0893    0.1913    1.2982 H         1 <0>         0.0000
     18 H5          4.0264   -1.1181    0.5601 H         1 <0>         0.0000
     19 H6          4.8636    0.2396    1.3258 H         1 <0>         0.0000
     20 H7         -3.0121    0.6307   -8.3998 H         1 <0>         0.0000
     21 H8         -3.4397    1.6181   -6.9820 H         1 <0>         0.0000
     22 H9         -3.0165    2.4078   -8.4961 H         1 <0>         0.0000
     23 H10         4.9059    0.4405   -1.1539 H         1 <0>         0.0000
     24 H11         4.0067    1.7760   -0.4307 H         1 <0>         0.0000
     25 H12         2.7915   -0.7432   -1.6904 H         1 <0>         0.0000
     26 H13         1.8465    0.5757   -0.9767 H         1 <0>         0.0000
     27 H14        -1.1065    2.5040   -6.8898 H         1 <0>         0.0000
     28 H15        -0.6743    1.5131   -8.3074 H         1 <0>         0.0000
     29 H16         3.5772    1.6335   -2.9515 H         1 <0>         0.0000
@<TRIPOS>BOND
     1    1    2 ar
     2    1    4 ar
     3    1   14 1
     4    2    5 ar
     5    2   15 1
     6    3    4 ar
     7    3   11 ar
     8    3   16 1
     9    4   13 1
    10    5   11 ar
    11    5   12 1
    12    6    8 1
    13    6   17 1
    14    6   18 1
    15    6   19 1
    16    7   10 1
    17    7   20 1
    18    7   21 1
    19    7   22 1
    20    8    9 1
    21    8   23 1
    22    8   24 1
    23    9   12 1
    24    9   25 1
    25    9   26 1
    26   10   13 1
    27   10   27 1
    28   10   28 1
    29   12   29 1
