@<TRIPOS>MOLECULE
*****
   22    23     0     0     0
SMALL
NO_CHARGES

@<TRIPOS>ATOM
      1 C1          1.8851   -1.0363   -0.1124 C.ar      1 <0>         0.0000
      2 C2          0.8066   -0.4630    0.5610 C.ar      1 <0>         0.0000
      3 C3          5.3278   -1.7525    0.1195 C.ar      1 <0>         0.0000
      4 C4          3.8249   -3.2687   -0.9882 C.ar      1 <0>         0.0000
      5 C5          1.7997   -1.0786    2.6757 C.ar      1 <0>         0.0000
      6 C6          6.3626   -2.3537   -0.5787 C.ar      1 <0>         0.0000
      7 C7          4.9269   -3.8019   -1.6370 C.ar      1 <0>         0.0000
      8 C8          2.9210   -1.6309    0.6081 C.ar      1 <0>         0.0000
      9 C9          4.0377   -2.2247   -0.0948 C.ar      1 <0>         0.0000
     10 C10         0.7638   -0.4841    1.9551 C.ar      1 <0>         0.0000
     11 C11         2.8783   -1.6520    2.0022 C.ar      1 <0>         0.0000
     12 N1          6.1949   -3.3698   -1.4546 N.ar      1 <0>         0.0000
     13 O1         -0.2886    0.0756    2.6119 O.3       1 <0>         0.0000
     14 F1          3.8658   -2.2203    2.7093 F         1 <0>         0.0000
     15 H1          1.9038   -1.0119   -1.1995 H         1 <0>         0.0000
     16 H2          0.0023   -0.0021   -0.0060 H         1 <0>         0.0000
     17 H3          5.5322   -0.9401    0.8094 H         1 <0>         0.0000
     18 H4          2.8327   -3.6633   -1.1826 H         1 <0>         0.0000
     19 H5          1.7722   -1.0990    3.7617 H         1 <0>         0.0000
     20 H6          7.3873   -2.0229   -0.4462 H         1 <0>         0.0000
     21 H7          4.8141   -4.6164   -2.3450 H         1 <0>         0.0000
     22 H8         -0.1748   -0.0180    3.5712 H         1 <0>         0.0000
@<TRIPOS>BOND
     1    1    2 ar
     2    1    8 ar
     3    1   15 1
     4    2   10 ar
     5    2   16 1
     6    3    6 ar
     7    3    9 ar
     8    3   17 1
     9    4    7 ar
    10    4    9 ar
    11    4   18 1
    12    5   10 ar
    13    5   11 ar
    14    5   19 1
    15    6   12 ar
    16    6   20 1
    17    7   12 ar
    18    7   21 1
    19    8    9 1
    20    8   11 ar
    21   10   13 1
    22   11   14 1
    23   13   22 1
