@<TRIPOS>MOLECULE
*****
   22    22     0     0     0
SMALL
NO_CHARGES

@<TRIPOS>ATOM
      1 C1          1.3879   -0.0684    1.6522 C.ar      1 <0>         0.0000
      2 C2          1.6520   -0.6227    2.8997 C.ar      1 <0>         0.0000
      3 C3         -0.6317   -1.3224    1.5803 C.ar      1 <0>         0.0000
      4 C4          0.2265   -0.4197    0.9733 C.ar      1 <0>         0.0000
      5 C5          0.7299   -1.5161    3.4206 C.ar      1 <0>         0.0000
      6 C6         -0.0777    0.1437   -0.3303 C.2       1 <0>         0.0000
      7 C7          1.8808    2.5531   -2.2969 C.3       1 <0>         0.0000
      8 C8          0.7084    1.6363   -2.0196 C.3       1 <0>         0.0000
      9 N1         -0.4092   -1.8816    2.7908 N.ar      1 <0>         0.0000
     10 N2          1.0141   -2.0734    4.6921 N.pl3     1 <0>         0.0000
     11 O1         -1.0915   -0.1230   -0.9913 O.2       1 <0>         0.0000
     12 O2          0.8957    1.0125   -0.7447 O.3       1 <0>         0.0000
     13 H1          2.0939    0.6343    1.2181 H         1 <0>         0.0000
     14 H2          2.5559   -0.3539    3.4369 H         1 <0>         0.0000
     15 H3         -1.5538   -1.6358    1.0999 H         1 <0>         0.0000
     16 H4          1.9550    3.3332   -1.5342 H         1 <0>         0.0000
     17 H5          2.8177    1.9867   -2.3157 H         1 <0>         0.0000
     18 H6          1.7759    3.0274   -3.2783 H         1 <0>         0.0000
     19 H7          0.6399    0.8585   -2.7859 H         1 <0>         0.0000
     20 H8         -0.2267    2.2039   -2.0004 H         1 <0>         0.0000
     21 H9          1.8759   -1.8430    5.1368 H         1 <0>         0.0000
     22 H10         0.3913   -2.7543    5.0689 H         1 <0>         0.0000
@<TRIPOS>BOND
     1    1    2 ar
     2    1    4 ar
     3    1   13 1
     4    2    5 ar
     5    2   14 1
     6    3    4 ar
     7    3    9 ar
     8    3   15 1
     9    4    6 1
    10    5    9 ar
    11    5   10 1
    12    6   11 2
    13    6   12 1
    14    7    8 1
    15    7   16 1
    16    7   17 1
    17    7   18 1
    18    8   12 1
    19    8   19 1
    20    8   20 1
    21   10   21 1
    22   10   22 1
