@<TRIPOS>MOLECULE
*****
   31    31     0     0     0
SMALL
NO_CHARGES

@<TRIPOS>ATOM
      1 C1         -1.4873   -3.1346    2.1413 C.ar      1 <0>         0.0000
      2 C2         -1.5226   -2.0562    1.2643 C.ar      1 <0>         0.0000
      3 C3         -2.2761   -1.6944    3.8618 C.ar      1 <0>         0.0000
      4 C4         -1.8697   -2.9586    3.4665 C.ar      1 <0>         0.0000
      5 C5         -1.9447   -0.8324    1.7581 C.ar      1 <0>         0.0000
      6 C6         -2.1284   -5.2029    6.4636 C.3       1 <0>         0.0000
      7 C7         -2.9305    0.0095   -0.3615 C.3       1 <0>         0.0000
      8 C8         -0.5663    0.5924    0.2597 C.3       1 <0>         0.0000
      9 C9         -2.4696    1.6315    1.4469 C.3       1 <0>         0.0000
     10 C10        -2.2287   -3.8978    5.7501 C.3       1 <0>         0.0000
     11 N1         -2.3236   -0.6229    3.0388 N.ar      1 <0>         0.0000
     12 N2         -1.8444   -4.0291    4.3754 N.pl3     1 <0>         0.0000
     13 N3         -1.9788    0.3467    0.7827 N.4       1 <0>         0.0000
     14 H1         -1.1609   -4.1072    1.7823 H         1 <0>         0.0000
     15 H2         -1.2255   -2.1831    0.2286 H         1 <0>         0.0000
     16 H3         -2.5847   -1.4943    4.8835 H         1 <0>         0.0000
     17 H4         -2.7864   -5.9498    6.0064 H         1 <0>         0.0000
     18 H5         -1.0981   -5.5750    6.4537 H         1 <0>         0.0000
     19 H6         -2.4336   -5.0788    7.5095 H         1 <0>         0.0000
     20 H7         -2.9432    0.8591   -1.0467 H         1 <0>         0.0000
     21 H8         -2.5539   -0.8880   -0.8559 H         1 <0>         0.0000
     22 H9         -3.9196   -0.1640    0.0667 H         1 <0>         0.0000
     23 H10        -0.6086    1.4348   -0.4331 H         1 <0>         0.0000
     24 H11         0.0721    0.8197    1.1156 H         1 <0>         0.0000
     25 H12        -0.2349   -0.3160   -0.2469 H         1 <0>         0.0000
     26 H13        -2.4656    2.4201    0.6922 H         1 <0>         0.0000
     27 H14        -3.4794    1.4501    1.8199 H         1 <0>         0.0000
     28 H15        -1.7857    1.8673    2.2644 H         1 <0>         0.0000
     29 H16        -1.5692   -3.1567    6.2117 H         1 <0>         0.0000
     30 H17        -3.2551   -3.5200    5.7746 H         1 <0>         0.0000
     31 H18        -1.5385   -4.9212    4.0275 H         1 <0>         0.0000
@<TRIPOS>BOND
     1    1    2 ar
     2    1    4 ar
     3    1   14 1
     4    2    5 ar
     5    2   15 1
     6    3    4 ar
     7    3   11 ar
     8    3   16 1
     9    4   12 1
    10    5   11 ar
    11    5   13 1
    12    6   10 1
    13    6   17 1
    14    6   18 1
    15    6   19 1
    16    7   13 1
    17    7   20 1
    18    7   21 1
    19    7   22 1
    20    8   13 1
    21    8   23 1
    22    8   24 1
    23    8   25 1
    24    9   13 1
    25    9   26 1
    26    9   27 1
    27    9   28 1
    28   10   12 1
    29   10   29 1
    30   10   30 1
    31   12   31 1
