@<TRIPOS>MOLECULE
*****
   28    28     0     0     0
SMALL
NO_CHARGES

@<TRIPOS>ATOM
      1 C1         -1.6791   -3.1976    2.1729 C.ar      1 <0>         0.0000
      2 C2         -1.7110   -2.1232    1.2840 C.ar      1 <0>         0.0000
      3 C3         -1.8811   -2.9812    3.5361 C.ar      1 <0>         0.0000
      4 C4         -2.1466   -0.6160    3.1213 C.ar      1 <0>         0.0000
      5 C5         -1.9447   -0.8324    1.7581 C.ar      1 <0>         0.0000
      6 C6         -2.1148   -1.6904    4.0102 C.ar      1 <0>         0.0000
      7 C7         -3.0898    0.1087   -0.2360 C.3       1 <0>         0.0000
      8 C8         -0.6221    0.4520    0.0919 C.3       1 <0>         0.0000
      9 C9         -2.2566    1.6722    1.4887 C.3       1 <0>         0.0000
     10 C10        -2.2671   -2.6224    6.1929 C.3       1 <0>         0.0000
     11 N1         -1.9788    0.3467    0.7827 N.4       1 <0>         0.0000
     12 O1         -2.3122   -1.4793    5.3401 O.3       1 <0>         0.0000
     13 H1         -1.4970   -4.2027    1.8040 H         1 <0>         0.0000
     14 H2         -1.5524   -2.3016    0.2237 H         1 <0>         0.0000
     15 H3         -1.8556   -3.8223    4.2236 H         1 <0>         0.0000
     16 H4         -2.3286    0.3889    3.4953 H         1 <0>         0.0000
     17 H5         -3.1005    0.9571   -0.9227 H         1 <0>         0.0000
     18 H6         -2.8662   -0.8206   -0.7634 H         1 <0>         0.0000
     19 H7         -4.0326    0.0334    0.3093 H         1 <0>         0.0000
     20 H8         -0.6637    1.2962   -0.5988 H         1 <0>         0.0000
     21 H9          0.1339    0.6125    0.8630 H         1 <0>         0.0000
     22 H10        -0.4456   -0.4836   -0.4421 H         1 <0>         0.0000
     23 H11        -2.2652    2.4584    0.7316 H         1 <0>         0.0000
     24 H12        -3.2272    1.5913    1.9818 H         1 <0>         0.0000
     25 H13        -1.4593    1.8368    2.2161 H         1 <0>         0.0000
     26 H14        -2.4401   -2.3136    7.2268 H         1 <0>         0.0000
     27 H15        -1.2910   -3.1059    6.1042 H         1 <0>         0.0000
     28 H16        -3.0479   -3.3236    5.8890 H         1 <0>         0.0000
@<TRIPOS>BOND
     1    1    2 ar
     2    1    3 ar
     3    1   13 1
     4    2    5 ar
     5    2   14 1
     6    3    6 ar
     7    3   15 1
     8    4    5 ar
     9    4    6 ar
    10    4   16 1
    11    5   11 1
    12    6   12 1
    13    7   11 1
    14    7   17 1
    15    7   18 1
    16    7   19 1
    17    8   11 1
    18    8   20 1
    19    8   21 1
    20    8   22 1
    21    9   11 1
    22    9   23 1
    23    9   24 1
    24    9   25 1
    25   10   12 1
    26   10   26 1
    27   10   27 1
    28   10   28 1
