@<TRIPOS>MOLECULE
*****
   31    31     0     0     0
SMALL
NO_CHARGES

@<TRIPOS>ATOM
      1 C1         -0.2483    1.6151   -4.7230 C.ar      1 <0>         0.0000
      2 C2          0.7425    1.7579   -3.7517 C.ar      1 <0>         0.0000
      3 C3         -0.1675    0.5803   -5.6549 C.ar      1 <0>         0.0000
      4 C4          1.8951   -0.1688   -4.6441 C.ar      1 <0>         0.0000
      5 C5          1.8142    0.8660   -3.7123 C.ar      1 <0>         0.0000
      6 C6          0.9042   -0.3116   -5.6155 C.ar      1 <0>         0.0000
      7 C7          6.0648   -0.3760   -1.3411 C.3       1 <0>         0.0000
      8 C8         -0.0405   -1.5168   -7.5687 C.3       1 <0>         0.0000
      9 C9          2.1017   -2.2826   -6.5329 C.3       1 <0>         0.0000
     10 C10         4.8442    0.5253   -1.4610 C.3       1 <0>         0.0000
     11 C11         3.9402    0.1407   -2.6260 C.3       1 <0>         0.0000
     12 N1          2.8015    1.0088   -2.7448 N.pl3     1 <0>         0.0000
     13 N2          0.9849   -1.3589   -6.5567 N.pl3     1 <0>         0.0000
     14 H1         -1.0830    2.3095   -4.7540 H         1 <0>         0.0000
     15 H2          0.6692    2.5682   -3.0307 H         1 <0>         0.0000
     16 H3         -0.9455    0.4774   -6.4071 H         1 <0>         0.0000
     17 H4          2.7310   -0.8644   -4.6140 H         1 <0>         0.0000
     18 H5          5.7688   -1.4202   -1.1983 H         1 <0>         0.0000
     19 H6          6.6676   -0.3171   -2.2532 H         1 <0>         0.0000
     20 H7          6.6991   -0.0792   -0.5002 H         1 <0>         0.0000
     21 H8          0.1882   -2.3760   -8.2045 H         1 <0>         0.0000
     22 H9         -0.0959   -0.6213   -8.1936 H         1 <0>         0.0000
     23 H10        -1.0144   -1.6766   -7.0982 H         1 <0>         0.0000
     24 H11         1.9949   -3.0218   -7.3310 H         1 <0>         0.0000
     25 H12         2.1403   -2.8043   -5.5728 H         1 <0>         0.0000
     26 H13         3.0417   -1.7429   -6.6765 H         1 <0>         0.0000
     27 H14         5.1839    1.5579   -1.6024 H         1 <0>         0.0000
     28 H15         4.2804    0.4950   -0.5211 H         1 <0>         0.0000
     29 H16         4.4937    0.2086   -3.5678 H         1 <0>         0.0000
     30 H17         3.5709   -0.8843   -2.5209 H         1 <0>         0.0000
     31 H18         2.7056    1.7754   -2.0830 H         1 <0>         0.0000
@<TRIPOS>BOND
     1    1    2 ar
     2    1    3 ar
     3    1   14 1
     4    2    5 ar
     5    2   15 1
     6    3    6 ar
     7    3   16 1
     8    4    5 ar
     9    4    6 ar
    10    4   17 1
    11    5   12 1
    12    6   13 1
    13    7   10 1
    14    7   18 1
    15    7   19 1
    16    7   20 1
    17    8   13 1
    18    8   21 1
    19    8   22 1
    20    8   23 1
    21    9   13 1
    22    9   24 1
    23    9   25 1
    24    9   26 1
    25   10   11 1
    26   10   27 1
    27   10   28 1
    28   11   12 1
    29   11   29 1
    30   11   30 1
    31   12   31 1
