@<TRIPOS>MOLECULE
*****
   31    31     0     0     0
SMALL
NO_CHARGES

@<TRIPOS>ATOM
      1 C1          6.9120   -0.1827   -3.3215 C.ar      1 <0>         0.0000
      2 C2          5.6678    0.1507   -2.7864 C.ar      1 <0>         0.0000
      3 C3          7.9386   -0.6162   -2.4825 C.ar      1 <0>         0.0000
      4 C4          6.4768   -0.3827   -0.5732 C.ar      1 <0>         0.0000
      5 C5          5.4502    0.0507   -1.4123 C.ar      1 <0>         0.0000
      6 C6          7.7210   -0.7162   -1.1084 C.ar      1 <0>         0.0000
      7 C7          3.7954    0.3488    0.4717 C.2       1 <0>         0.0000
      8 C8         10.1550   -0.5783    1.5459 C.3       1 <0>         0.0000
      9 C9          2.2584    1.4064    2.1556 C.3       1 <0>         0.0000
     10 C10         2.2846    2.2583   -0.1648 C.3       1 <0>         0.0000
     11 C11         8.7276   -0.6337    1.0447 C.3       1 <0>         0.0000
     12 N1          4.1859    0.3893   -0.8691 N.am      1 <0>         0.0000
     13 N2          2.8114    1.3064    0.8109 N.am      1 <0>         0.0000
     14 O1          4.2359   -0.4517    1.2996 O.2       1 <0>         0.0000
     15 O2          8.7228   -1.1390   -0.2895 O.3       1 <0>         0.0000
     16 H1          7.0808   -0.1056   -4.3916 H         1 <0>         0.0000
     17 H2          4.8754    0.4878   -3.4497 H         1 <0>         0.0000
     18 H3          8.9051   -0.8750   -2.9059 H         1 <0>         0.0000
     19 H4          6.3117   -0.4628    0.4989 H         1 <0>         0.0000
     20 H5         10.6066   -1.5743    1.5483 H         1 <0>         0.0000
     21 H6         10.7598    0.0826    0.9163 H         1 <0>         0.0000
     22 H7         10.1916   -0.1714    2.5619 H         1 <0>         0.0000
     23 H8          2.8531    2.1000    2.7558 H         1 <0>         0.0000
     24 H9          2.2648    0.4265    2.6407 H         1 <0>         0.0000
     25 H10         1.2283    1.7704    2.1146 H         1 <0>         0.0000
     26 H11         1.4119    1.8353   -0.6691 H         1 <0>         0.0000
     27 H12         3.0456    2.4914   -0.9144 H         1 <0>         0.0000
     28 H13         1.9880    3.1852    0.3335 H         1 <0>         0.0000
     29 H14         8.2818    0.3655    1.0448 H         1 <0>         0.0000
     30 H15         8.1249   -1.2951    1.6743 H         1 <0>         0.0000
     31 H16         3.4815    0.6972   -1.5318 H         1 <0>         0.0000
@<TRIPOS>BOND
     1    1    2 ar
     2    1    3 ar
     3    1   16 1
     4    2    5 ar
     5    2   17 1
     6    3    6 ar
     7    3   18 1
     8    4    5 ar
     9    4    6 ar
    10    4   19 1
    11    5   12 1
    12    6   15 1
    13    7   12 am
    14    7   13 am
    15    7   14 2
    16    8   11 1
    17    8   20 1
    18    8   21 1
    19    8   22 1
    20    9   13 1
    21    9   23 1
    22    9   24 1
    23    9   25 1
    24   10   13 1
    25   10   26 1
    26   10   27 1
    27   10   28 1
    28   11   15 1
    29   11   29 1
    30   11   30 1
    31   12   31 1
