@<TRIPOS>MOLECULE
*****
   19    19     0     0     0
SMALL
NO_CHARGES

@<TRIPOS>ATOM
      1 C1          0.2265   -0.4197    0.9733 C.ar      1 <0>         0.0000
      2 C2          1.6520   -0.6227    2.8997 C.ar      1 <0>         0.0000
      3 C3         -0.6317   -1.3224    1.5803 C.ar      1 <0>         0.0000
      4 C4          1.3879   -0.0684    1.6522 C.ar      1 <0>         0.0000
      5 C5          0.7299   -1.5161    3.4206 C.ar      1 <0>         0.0000
      6 C6          3.1822    2.3984   -0.5379 C.3       1 <0>         0.0000
      7 C7          2.0795    1.4537   -0.2000 C.3       1 <0>         0.0000
      8 N1         -0.4092   -1.8816    2.7908 N.ar      1 <0>         0.0000
      9 N2          2.2929    0.8471    1.0780 N.pl3     1 <0>         0.0000
     10 Cl1         0.9724   -2.2486    4.9533 Cl        1 <0>         0.0000
     11 H1         -0.0096   -0.0065   -0.0018 H         1 <0>         0.0000
     12 H2          2.5517   -0.3599    3.4474 H         1 <0>         0.0000
     13 H3         -1.5513   -1.6290    1.0926 H         1 <0>         0.0000
     14 H4          3.2483    3.2027    0.2028 H         1 <0>         0.0000
     15 H5          4.1429    1.8746   -0.5889 H         1 <0>         0.0000
     16 H6          2.9930    2.8552   -1.5167 H         1 <0>         0.0000
     17 H7          2.0190    0.6532   -0.9435 H         1 <0>         0.0000
     18 H8          1.1186    1.9754   -0.1650 H         1 <0>         0.0000
     19 H9          3.1160    1.0663    1.6073 H         1 <0>         0.0000
@<TRIPOS>BOND
     1    1    3 ar
     2    1    4 ar
     3    1   11 1
     4    2    4 ar
     5    2    5 ar
     6    2   12 1
     7    3    8 ar
     8    3   13 1
     9    4    9 1
    10    5    8 ar
    11    5   10 1
    12    6    7 1
    13    6   14 1
    14    6   15 1
    15    6   16 1
    16    7    9 1
    17    7   17 1
    18    7   18 1
    19    9   19 1
