@<TRIPOS>MOLECULE
*****
   20    20     0     0     0
SMALL
NO_CHARGES

@<TRIPOS>ATOM
      1 C1          1.3879   -0.0684    1.6522 C.ar      1 <0>         0.0000
      2 C2          1.6520   -0.6227    2.8997 C.ar      1 <0>         0.0000
      3 C3         -0.6317   -1.3224    1.5803 C.ar      1 <0>         0.0000
      4 C4          0.2265   -0.4197    0.9733 C.ar      1 <0>         0.0000
      5 C5          0.7299   -1.5161    3.4206 C.ar      1 <0>         0.0000
      6 C6         -0.5049    2.0982   -1.4966 C.3       1 <0>         0.0000
      7 C7          0.4327    1.4182   -0.5218 C.3       1 <0>         0.0000
      8 N1         -0.4092   -1.8816    2.7908 N.ar      1 <0>         0.0000
      9 N2          1.0500   -2.0554    4.7055 N.pl3     1 <0>         0.0000
     10 O1          2.1117   -1.6947    5.2582 O.3       1 <0>         0.0000
     11 O2          0.2564   -2.8679    5.2279 O.2       1 <0>         0.0000
     12 O3         -0.0567    0.1043   -0.2446 O.3       1 <0>         0.0000
     13 H1          2.0902    0.6353    1.2142 H         1 <0>         0.0000
     14 H2          2.5581   -0.3513    3.4325 H         1 <0>         0.0000
     15 H3         -1.5524   -1.6327    1.0962 H         1 <0>         0.0000
     16 H4         -0.5617    1.5415   -2.4362 H         1 <0>         0.0000
     17 H5         -1.5110    2.1789   -1.0721 H         1 <0>         0.0000
     18 H6         -0.1667    3.1176   -1.7099 H         1 <0>         0.0000
     19 H7          0.4850    1.9798    0.4157 H         1 <0>         0.0000
     20 H8          1.4372    1.3376   -0.9478 H         1 <0>         0.0000
@<TRIPOS>BOND
     1    1    2 ar
     2    1    4 ar
     3    1   13 1
     4    2    5 ar
     5    2   14 1
     6    3    4 ar
     7    3    8 ar
     8    3   15 1
     9    4   12 1
    10    5    8 ar
    11    5    9 1
    12    6    7 1
    13    6   16 1
    14    6   17 1
    15    6   18 1
    16    7   12 1
    17    7   19 1
    18    7   20 1
    19    9   10 1
    20    9   11 2
