@<TRIPOS>MOLECULE
*****
   27    27     0     0     0
SMALL
NO_CHARGES

@<TRIPOS>ATOM
      1 C1          1.8851   -1.0363   -0.1124 C.ar      1 <0>         0.0000
      2 C2          2.8783   -1.6520    2.0022 C.ar      1 <0>         0.0000
      3 C3          0.8066   -0.4630    0.5610 C.ar      1 <0>         0.0000
      4 C4          1.7997   -1.0786    2.6757 C.ar      1 <0>         0.0000
      5 C5          2.9210   -1.6309    0.6081 C.ar      1 <0>         0.0000
      6 C6          0.7638   -0.4841    1.9551 C.ar      1 <0>         0.0000
      7 C7          4.2137   -2.2816   -1.4485 C.2       1 <0>         0.0000
      8 C8          5.5066   -2.9858   -1.7756 C.3       1 <0>         0.0000
      9 C9         -1.4072    0.7172    1.8956 C.3       1 <0>         0.0000
     10 C10        -0.3875    0.0676    4.0835 C.3       1 <0>         0.0000
     11 N1          3.9989   -2.2056   -0.0658 N.am      1 <0>         0.0000
     12 N2         -0.3266    0.0965    2.6356 N.pl3     1 <0>         0.0000
     13 O1          3.4901   -1.8506   -2.3404 O.2       1 <0>         0.0000
     14 H1          1.9079   -1.0144   -1.1992 H         1 <0>         0.0000
     15 H2          3.6801   -2.1125    2.5736 H         1 <0>         0.0000
     16 H3          0.0045   -0.0025   -0.0102 H         1 <0>         0.0000
     17 H4          1.7758   -1.1010    3.7619 H         1 <0>         0.0000
     18 H5          5.3265   -4.0591   -1.8837 H         1 <0>         0.0000
     19 H6          6.2288   -2.8271   -0.9697 H         1 <0>         0.0000
     20 H7          5.9229   -2.5887   -2.7061 H         1 <0>         0.0000
     21 H8         -2.1582    1.1100    2.5860 H         1 <0>         0.0000
     22 H9         -1.8831   -0.0141    1.2368 H         1 <0>         0.0000
     23 H10        -1.0242    1.5405    1.2866 H         1 <0>         0.0000
     24 H11        -1.2983    0.5621    4.4311 H         1 <0>         0.0000
     25 H12         0.4775    0.5839    4.5086 H         1 <0>         0.0000
     26 H13        -0.3896   -0.9656    4.4412 H         1 <0>         0.0000
     27 H14         4.7301   -2.6267    0.5190 H         1 <0>         0.0000
@<TRIPOS>BOND
     1    1    3 ar
     2    1    5 ar
     3    1   14 1
     4    2    4 ar
     5    2    5 ar
     6    2   15 1
     7    3    6 ar
     8    3   16 1
     9    4    6 ar
    10    4   17 1
    11    5   11 1
    12    6   12 1
    13    7    8 1
    14    7   11 am
    15    7   13 2
    16    8   18 1
    17    8   19 1
    18    8   20 1
    19    9   12 1
    20    9   21 1
    21    9   22 1
    22    9   23 1
    23   10   12 1
    24   10   24 1
    25   10   25 1
    26   10   26 1
    27   11   27 1
