@<TRIPOS>MOLECULE
*****
   28    28     0     0     0
SMALL
NO_CHARGES

@<TRIPOS>ATOM
      1 C1          0.2265   -0.4197    0.9733 C.ar      1 <0>         0.0000
      2 C2          1.6520   -0.6227    2.8997 C.ar      1 <0>         0.0000
      3 C3         -0.6317   -1.3224    1.5803 C.ar      1 <0>         0.0000
      4 C4          1.3879   -0.0684    1.6522 C.ar      1 <0>         0.0000
      5 C5          0.7299   -1.5161    3.4206 C.ar      1 <0>         0.0000
      6 C6          2.1935    1.4972   -0.1590 C.2       1 <0>         0.0000
      7 C7          0.7035   -3.4408    6.6481 C.3       1 <0>         0.0000
      8 C8          3.4757    3.1272   -1.5547 C.3       1 <0>         0.0000
      9 C9          0.1442   -3.0018    5.3378 C.3       1 <0>         0.0000
     10 N1         -0.4092   -1.8816    2.7908 N.ar      1 <0>         0.0000
     11 N2          2.2845    0.8357    1.0826 N.am      1 <0>         0.0000
     12 N3          1.0126   -2.0713    4.6933 N.pl3     1 <0>         0.0000
     13 N4          3.3012    2.3259   -0.3652 N.am      1 <0>         0.0000
     14 O1          1.2793    1.3836   -0.9720 O.2       1 <0>         0.0000
     15 H1         -0.0102   -0.0062   -0.0012 H         1 <0>         0.0000
     16 H2          2.5539   -0.3615    3.4456 H         1 <0>         0.0000
     17 H3         -1.5511   -1.6291    1.0926 H         1 <0>         0.0000
     18 H4          1.6734   -3.9320    6.5142 H         1 <0>         0.0000
     19 H5          0.8207   -2.5894    7.3274 H         1 <0>         0.0000
     20 H6          0.0230   -4.1596    7.1202 H         1 <0>         0.0000
     21 H7          4.0185    2.5587   -2.3144 H         1 <0>         0.0000
     22 H8          4.0426    4.0325   -1.3208 H         1 <0>         0.0000
     23 H9          2.5031    3.4179   -1.9608 H         1 <0>         0.0000
     24 H10        -0.8241   -2.5122    5.4788 H         1 <0>         0.0000
     25 H11         0.0130   -3.8554    4.6663 H         1 <0>         0.0000
     26 H12         3.1241    1.0581    1.6280 H         1 <0>         0.0000
     27 H13         1.8619   -1.7779    5.1312 H         1 <0>         0.0000
     28 H14         4.0159    2.3663    0.3545 H         1 <0>         0.0000
@<TRIPOS>BOND
     1    1    3 ar
     2    1    4 ar
     3    1   15 1
     4    2    4 ar
     5    2    5 ar
     6    2   16 1
     7    3   10 ar
     8    3   17 1
     9    4   11 1
    10    5   10 ar
    11    5   12 1
    12    6   11 am
    13    6   13 am
    14    6   14 2
    15    7    9 1
    16    7   18 1
    17    7   19 1
    18    7   20 1
    19    8   13 1
    20    8   21 1
    21    8   22 1
    22    8   23 1
    23    9   12 1
    24    9   24 1
    25    9   25 1
    26   11   26 1
    27   12   27 1
    28   13   28 1
