@<TRIPOS>MOLECULE
*****
   28    28     0     0     0
SMALL
NO_CHARGES

@<TRIPOS>ATOM
      1 C1         -2.6654   -1.9941    1.5044 C.ar      1 <0>         0.0000
      2 C2         -1.8346   -2.8930    3.5435 C.ar      1 <0>         0.0000
      3 C3         -1.1947   -0.7759    2.9218 C.ar      1 <0>         0.0000
      4 C4         -2.6147   -3.0487    2.4091 C.ar      1 <0>         0.0000
      5 C5         -1.9447   -0.8324    1.7581 C.ar      1 <0>         0.0000
      6 C6         -3.8381   -5.0595    3.2370 C.3       1 <0>         0.0000
      7 C7         -3.4196    0.8317    0.6495 C.3       1 <0>         0.0000
      8 C8         -1.4346   -0.1158   -0.5660 C.3       1 <0>         0.0000
      9 C9         -1.1249    1.5183    1.2630 C.3       1 <0>         0.0000
     10 N1         -1.1207   -1.7798    3.8242 N.ar      1 <0>         0.0000
     11 N2         -3.3321   -4.2343    2.1799 N.pl3     1 <0>         0.0000
     12 N3         -1.9788    0.3467    0.7827 N.4       1 <0>         0.0000
     13 H1         -3.2660   -2.0765    0.6014 H         1 <0>         0.0000
     14 H2         -1.7553   -3.6815    4.2860 H         1 <0>         0.0000
     15 H3         -0.6114    0.1047    3.1733 H         1 <0>         0.0000
     16 H4         -3.5824   -4.6260    4.2073 H         1 <0>         0.0000
     17 H5         -3.4054   -6.0617    3.1742 H         1 <0>         0.0000
     18 H6         -4.9259   -5.1423    3.1641 H         1 <0>         0.0000
     19 H7         -3.4262    1.6711   -0.0482 H         1 <0>         0.0000
     20 H8         -4.0180    0.0011    0.2702 H         1 <0>         0.0000
     21 H9         -3.7607    1.1414    1.6392 H         1 <0>         0.0000
     22 H10        -1.4660    0.7355   -1.2484 H         1 <0>         0.0000
     23 H11        -0.4096   -0.4587   -0.4129 H         1 <0>         0.0000
     24 H12        -2.0711   -0.9280   -0.9224 H         1 <0>         0.0000
     25 H13        -1.2005    2.3136    0.5192 H         1 <0>         0.0000
     26 H14        -1.5175    1.8445    2.2280 H         1 <0>         0.0000
     27 H15        -0.0961    1.1655    1.3569 H         1 <0>         0.0000
     28 H16        -3.4869   -4.5008    1.2231 H         1 <0>         0.0000
@<TRIPOS>BOND
     1    1    4 ar
     2    1    5 ar
     3    1   13 1
     4    2    4 ar
     5    2   10 ar
     6    2   14 1
     7    3    5 ar
     8    3   10 ar
     9    3   15 1
    10    4   11 1
    11    5   12 1
    12    6   11 1
    13    6   16 1
    14    6   17 1
    15    6   18 1
    16    7   12 1
    17    7   19 1
    18    7   20 1
    19    7   21 1
    20    8   12 1
    21    8   22 1
    22    8   23 1
    23    8   24 1
    24    9   12 1
    25    9   25 1
    26    9   26 1
    27    9   27 1
    28   11   28 1
