@<TRIPOS>MOLECULE
*****
   25    25     0     0     0
SMALL
NO_CHARGES

@<TRIPOS>ATOM
      1 C1         -0.7629   -1.2091    2.3866 C.ar      1 <0>         0.0000
      2 C2         -1.9614   -2.9451    3.4850 C.ar      1 <0>         0.0000
      3 C3         -3.0902   -1.5581    2.0426 C.ar      1 <0>         0.0000
      4 C4         -0.7630   -2.2845    3.2680 C.ar      1 <0>         0.0000
      5 C5         -1.9447   -0.8324    1.7581 C.ar      1 <0>         0.0000
      6 C6         -1.0264    0.0549   -0.3733 C.3       1 <0>         0.0000
      7 C7         -1.5589    1.6115    1.5264 C.3       1 <0>         0.0000
      8 C8         -3.3733    0.5769    0.2038 C.3       1 <0>         0.0000
      9 N1         -3.1292   -2.6084    2.8929 N.ar      1 <0>         0.0000
     10 N2          0.4152   -2.6882    3.9174 N.pl3     1 <0>         0.0000
     11 N3         -1.9788    0.3467    0.7827 N.4       1 <0>         0.0000
     12 H1          0.1572   -0.6639    2.1891 H         1 <0>         0.0000
     13 H2         -2.0241   -3.7917    4.1622 H         1 <0>         0.0000
     14 H3         -4.0420   -1.3108    1.5825 H         1 <0>         0.0000
     15 H4         -1.0627    0.9040   -1.0583 H         1 <0>         0.0000
     16 H5         -0.0250   -0.0715    0.0426 H         1 <0>         0.0000
     17 H6         -1.3661   -0.8595   -0.8634 H         1 <0>         0.0000
     18 H7         -1.5887    2.4411    0.8175 H         1 <0>         0.0000
     19 H8         -2.2648    1.7683    2.3441 H         1 <0>         0.0000
     20 H9         -0.5471    1.4557    1.9056 H         1 <0>         0.0000
     21 H10        -3.3158    1.4280   -0.4772 H         1 <0>         0.0000
     22 H11        -3.6692   -0.3306   -0.3259 H         1 <0>         0.0000
     23 H12        -4.0500    0.7846    1.0350 H         1 <0>         0.0000
     24 H13         0.3798   -3.4365    4.5841 H         1 <0>         0.0000
     25 H14         1.2591   -2.1645    3.7793 H         1 <0>         0.0000
@<TRIPOS>BOND
     1    1    4 ar
     2    1    5 ar
     3    1   12 1
     4    2    4 ar
     5    2    9 ar
     6    2   13 1
     7    3    5 ar
     8    3    9 ar
     9    3   14 1
    10    4   10 1
    11    5   11 1
    12    6   11 1
    13    6   15 1
    14    6   16 1
    15    6   17 1
    16    7   11 1
    17    7   18 1
    18    7   19 1
    19    7   20 1
    20    8   11 1
    21    8   21 1
    22    8   22 1
    23    8   23 1
    24   10   24 1
    25   10   25 1
