@<TRIPOS>MOLECULE
*****
   33    33     0     0     0
SMALL
NO_CHARGES

@<TRIPOS>ATOM
      1 C1         -1.4854   -3.1338    2.1440 C.ar      1 <0>         0.0000
      2 C2         -1.5204   -2.0562    1.2660 C.ar      1 <0>         0.0000
      3 C3         -2.2784   -1.6929    3.8620 C.ar      1 <0>         0.0000
      4 C4         -1.8701   -2.9571    3.4684 C.ar      1 <0>         0.0000
      5 C5         -1.9447   -0.8324    1.7581 C.ar      1 <0>         0.0000
      6 C6         -2.1991   -4.0110    5.7318 C.2       1 <0>         0.0000
      7 C7         -2.3651   -5.4124    7.8328 C.3       1 <0>         0.0000
      8 C8         -2.9284    0.0083   -0.3630 C.3       1 <0>         0.0000
      9 C9         -0.5658    0.5942    0.2619 C.3       1 <0>         0.0000
     10 C10        -2.4722    1.6308    1.4462 C.3       1 <0>         0.0000
     11 C11        -2.0253   -5.3888    6.3533 C.3       1 <0>         0.0000
     12 N1         -2.3258   -0.6222    3.0381 N.ar      1 <0>         0.0000
     13 N2         -1.8460   -4.0176    4.3712 N.am      1 <0>         0.0000
     14 N3         -1.9788    0.3467    0.7827 N.4       1 <0>         0.0000
     15 O1         -2.6002   -3.0505    6.3807 O.2       1 <0>         0.0000
     16 H1         -1.1565   -4.1062    1.7872 H         1 <0>         0.0000
     17 H2         -1.2225   -2.1834    0.2307 H         1 <0>         0.0000
     18 H3         -2.5897   -1.4930    4.8830 H         1 <0>         0.0000
     19 H4         -1.7337   -4.7145    8.3925 H         1 <0>         0.0000
     20 H5         -2.2128   -6.4155    8.2429 H         1 <0>         0.0000
     21 H6         -3.4094   -5.1291    8.0009 H         1 <0>         0.0000
     22 H7         -2.9411    0.8580   -1.0481 H         1 <0>         0.0000
     23 H8         -2.5499   -0.8887   -0.8568 H         1 <0>         0.0000
     24 H9         -3.9179   -0.1664    0.0638 H         1 <0>         0.0000
     25 H10        -0.6081    1.4366   -0.4310 H         1 <0>         0.0000
     26 H11         0.0710    0.8222    1.1187 H         1 <0>         0.0000
     27 H12        -0.2325   -0.3138   -0.2443 H         1 <0>         0.0000
     28 H13        -2.4681    2.4195    0.6916 H         1 <0>         0.0000
     29 H14        -3.4824    1.4482    1.8177 H         1 <0>         0.0000
     30 H15        -1.7898    1.8674    2.2648 H         1 <0>         0.0000
     31 H16        -2.6710   -6.0951    5.8189 H         1 <0>         0.0000
     32 H17        -0.9855   -5.7054    6.2119 H         1 <0>         0.0000
     33 H18        -1.5313   -4.9241    4.0034 H         1 <0>         0.0000
@<TRIPOS>BOND
     1    1    2 ar
     2    1    4 ar
     3    1   16 1
     4    2    5 ar
     5    2   17 1
     6    3    4 ar
     7    3   12 ar
     8    3   18 1
     9    4   13 1
    10    5   12 ar
    11    5   14 1
    12    6   11 1
    13    6   13 am
    14    6   15 2
    15    7   11 1
    16    7   19 1
    17    7   20 1
    18    7   21 1
    19    8   14 1
    20    8   22 1
    21    8   23 1
    22    8   24 1
    23    9   14 1
    24    9   25 1
    25    9   26 1
    26    9   27 1
    27   10   14 1
    28   10   28 1
    29   10   29 1
    30   10   30 1
    31   11   31 1
    32   11   32 1
    33   13   33 1
