@<TRIPOS>MOLECULE
*****
   23    24     0     0     0
SMALL
NO_CHARGES

@<TRIPOS>ATOM
      1 C1          1.8851   -1.0363   -0.1124 C.ar      1 <0>         0.0000
      2 C2          0.8066   -0.4630    0.5610 C.ar      1 <0>         0.0000
      3 C3          4.3209   -3.5780    0.0633 C.ar      1 <0>         0.0000
      4 C4          4.8299   -1.4433   -0.9303 C.ar      1 <0>         0.0000
      5 C5          1.7997   -1.0786    2.6757 C.ar      1 <0>         0.0000
      6 C6          5.3977   -4.1203   -0.6237 C.ar      1 <0>         0.0000
      7 C7          5.8938   -2.0396   -1.5921 C.ar      1 <0>         0.0000
      8 C8          2.9210   -1.6309    0.6081 C.ar      1 <0>         0.0000
      9 C9          4.0377   -2.2247   -0.0948 C.ar      1 <0>         0.0000
     10 C10         0.7638   -0.4841    1.9551 C.ar      1 <0>         0.0000
     11 C11         2.8783   -1.6520    2.0022 C.ar      1 <0>         0.0000
     12 N1          6.1442   -3.3449   -1.4220 N.ar      1 <0>         0.0000
     13 O1         -0.2886    0.0756    2.6119 O.3       1 <0>         0.0000
     14 F1          3.8658   -2.2203    2.7093 F         1 <0>         0.0000
     15 H1          1.9038   -1.0119   -1.1995 H         1 <0>         0.0000
     16 H2          0.0023   -0.0021   -0.0060 H         1 <0>         0.0000
     17 H3          3.7194   -4.2117    0.7083 H         1 <0>         0.0000
     18 H4          4.6323   -0.3849   -1.0723 H         1 <0>         0.0000
     19 H5          1.7722   -1.0990    3.7617 H         1 <0>         0.0000
     20 H6          5.6912   -5.1590   -0.5613 H         1 <0>         0.0000
     21 H7          6.5613   -1.5111   -2.2587 H         1 <0>         0.0000
     22 H8          6.9302   -3.7636   -1.9184 H         1 <0>         0.0000
     23 H9         -0.1748   -0.0180    3.5712 H         1 <0>         0.0000
@<TRIPOS>BOND
     1    1    2 ar
     2    1    8 ar
     3    1   15 1
     4    2   10 ar
     5    2   16 1
     6    3    6 ar
     7    3    9 ar
     8    3   17 1
     9    4    7 ar
    10    4    9 ar
    11    4   18 1
    12    5   10 ar
    13    5   11 ar
    14    5   19 1
    15    6   12 ar
    16    6   20 1
    17    7   12 ar
    18    7   21 1
    19    8    9 1
    20    8   11 ar
    21   10   13 1
    22   11   14 1
    23   12   22 1
    24   13   23 1
