@<TRIPOS>MOLECULE
*****
   27    27     0     0     0
SMALL
NO_CHARGES

@<TRIPOS>ATOM
      1 C1         -1.8705   -2.9581    3.4671 C.ar      1 <0>         0.0000
      2 C2         -1.5210   -2.0561    1.2652 C.ar      1 <0>         0.0000
      3 C3         -2.2783   -1.6941    3.8616 C.ar      1 <0>         0.0000
      4 C4         -1.4862   -3.1342    2.1425 C.ar      1 <0>         0.0000
      5 C5         -1.9447   -0.8324    1.7581 C.ar      1 <0>         0.0000
      6 C6         -2.9290    0.0087   -0.3626 C.3       1 <0>         0.0000
      7 C7         -0.5660    0.5938    0.2613 C.3       1 <0>         0.0000
      8 C8         -2.4716    1.6310    1.4464 C.3       1 <0>         0.0000
      9 C9         -1.0673   -5.4168    2.6622 C.3       1 <0>         0.0000
     10 N1         -2.3255   -0.6228    3.0383 N.ar      1 <0>         0.0000
     11 N2         -1.9788    0.3467    0.7827 N.4       1 <0>         0.0000
     12 O1         -1.0777   -4.3566    1.7070 O.3       1 <0>         0.0000
     13 H1         -1.8534   -3.7808    4.1735 H         1 <0>         0.0000
     14 H2         -1.2241   -2.1771    0.2281 H         1 <0>         0.0000
     15 H3         -2.5880   -1.5043    4.8840 H         1 <0>         0.0000
     16 H4         -2.9417    0.8583   -1.0477 H         1 <0>         0.0000
     17 H5         -2.5510   -0.8885   -0.8566 H         1 <0>         0.0000
     18 H6         -3.9184   -0.1657    0.0646 H         1 <0>         0.0000
     19 H7         -0.6083    1.4361   -0.4316 H         1 <0>         0.0000
     20 H8          0.0713    0.8215    1.1179 H         1 <0>         0.0000
     21 H9         -0.2332   -0.3144   -0.2450 H         1 <0>         0.0000
     22 H10        -2.4674    2.4196    0.6918 H         1 <0>         0.0000
     23 H11        -3.4816    1.4487    1.8183 H         1 <0>         0.0000
     24 H12        -1.7887    1.8674    2.2647 H         1 <0>         0.0000
     25 H13        -0.7212   -6.3361    2.1835 H         1 <0>         0.0000
     26 H14        -2.0747   -5.5584    3.0617 H         1 <0>         0.0000
     27 H15        -0.3879   -5.1547    3.4767 H         1 <0>         0.0000
@<TRIPOS>BOND
     1    1    3 ar
     2    1    4 ar
     3    1   13 1
     4    2    4 ar
     5    2    5 ar
     6    2   14 1
     7    3   10 ar
     8    3   15 1
     9    4   12 1
    10    5   10 ar
    11    5   11 1
    12    6   11 1
    13    6   16 1
    14    6   17 1
    15    6   18 1
    16    7   11 1
    17    7   19 1
    18    7   20 1
    19    7   21 1
    20    8   11 1
    21    8   22 1
    22    8   23 1
    23    8   24 1
    24    9   12 1
    25    9   25 1
    26    9   26 1
    27    9   27 1
