@<TRIPOS>MOLECULE
*****
   22    23     0     0     0
SMALL
NO_CHARGES

@<TRIPOS>ATOM
      1 C1          1.8851   -1.0363   -0.1124 C.ar      1 <0>         0.0000
      2 C2          0.8066   -0.4630    0.5610 C.ar      1 <0>         0.0000
      3 C3          3.9710   -3.5512   -0.5199 C.ar      1 <0>         0.0000
      4 C4          5.1337   -1.4467   -0.4568 C.ar      1 <0>         0.0000
      5 C5          1.7997   -1.0786    2.6757 C.ar      1 <0>         0.0000
      6 C6          5.0485   -4.0637   -1.2243 C.ar      1 <0>         0.0000
      7 C7          6.1592   -2.0536   -1.1639 C.ar      1 <0>         0.0000
      8 C8          2.9210   -1.6309    0.6081 C.ar      1 <0>         0.0000
      9 C9          4.0223   -2.2168   -0.1326 C.ar      1 <0>         0.0000
     10 C10         0.7638   -0.4841    1.9551 C.ar      1 <0>         0.0000
     11 C11         2.8783   -1.6520    2.0022 C.ar      1 <0>         0.0000
     12 N1          6.1452   -3.3468   -1.5574 N.ar      1 <0>         0.0000
     13 O1         -0.2885    0.0753    2.6126 O.3       1 <0>         0.0000
     14 Cl1         4.1341   -2.3751    2.9466 Cl        1 <0>         0.0000
     15 H1          1.9009   -1.0131   -1.1996 H         1 <0>         0.0000
     16 H2          0.0011   -0.0040   -0.0056 H         1 <0>         0.0000
     17 H3          3.1201   -4.1825   -0.2851 H         1 <0>         0.0000
     18 H4          5.2106   -0.4026   -0.1711 H         1 <0>         0.0000
     19 H5          1.7564   -1.0903    3.7623 H         1 <0>         0.0000
     20 H6          5.0569   -5.0985   -1.5502 H         1 <0>         0.0000
     21 H7          7.0488   -1.4966   -1.4396 H         1 <0>         0.0000
     22 H8         -0.9229    0.4456    1.9784 H         1 <0>         0.0000
@<TRIPOS>BOND
     1    1    2 ar
     2    1    8 ar
     3    1   15 1
     4    2   10 ar
     5    2   16 1
     6    3    6 ar
     7    3    9 ar
     8    3   17 1
     9    4    7 ar
    10    4    9 ar
    11    4   18 1
    12    5   10 ar
    13    5   11 ar
    14    5   19 1
    15    6   12 ar
    16    6   20 1
    17    7   12 ar
    18    7   21 1
    19    8    9 1
    20    8   11 ar
    21   10   13 1
    22   11   14 1
    23   13   22 1
