@<TRIPOS>MOLECULE
*****
   28    28     0     0     0
SMALL
NO_CHARGES

@<TRIPOS>ATOM
      1 C1         -1.4873   -3.1346    2.1413 C.ar      1 <0>         0.0000
      2 C2         -1.5226   -2.0562    1.2643 C.ar      1 <0>         0.0000
      3 C3         -2.2761   -1.6944    3.8618 C.ar      1 <0>         0.0000
      4 C4         -1.8697   -2.9586    3.4665 C.ar      1 <0>         0.0000
      5 C5         -1.9447   -0.8324    1.7581 C.ar      1 <0>         0.0000
      6 C6         -2.7405   -4.1311    5.4895 C.3       1 <0>         0.0000
      7 C7         -2.9305    0.0095   -0.3615 C.3       1 <0>         0.0000
      8 C8         -0.5663    0.5924    0.2597 C.3       1 <0>         0.0000
      9 C9         -2.4696    1.6315    1.4469 C.3       1 <0>         0.0000
     10 N1         -2.3236   -0.6229    3.0388 N.ar      1 <0>         0.0000
     11 N2         -1.8444   -4.0291    4.3754 N.pl3     1 <0>         0.0000
     12 N3         -1.9788    0.3467    0.7827 N.4       1 <0>         0.0000
     13 H1         -1.1609   -4.1072    1.7823 H         1 <0>         0.0000
     14 H2         -1.2255   -2.1831    0.2286 H         1 <0>         0.0000
     15 H3         -2.5847   -1.4943    4.8835 H         1 <0>         0.0000
     16 H4         -3.4167   -3.2724    5.5077 H         1 <0>         0.0000
     17 H5         -2.1775   -4.1556    6.4264 H         1 <0>         0.0000
     18 H6         -3.3350   -5.0456    5.4139 H         1 <0>         0.0000
     19 H7         -2.9432    0.8591   -1.0467 H         1 <0>         0.0000
     20 H8         -2.5539   -0.8880   -0.8559 H         1 <0>         0.0000
     21 H9         -3.9196   -0.1640    0.0667 H         1 <0>         0.0000
     22 H10        -0.6086    1.4348   -0.4331 H         1 <0>         0.0000
     23 H11         0.0721    0.8197    1.1156 H         1 <0>         0.0000
     24 H12        -0.2349   -0.3160   -0.2469 H         1 <0>         0.0000
     25 H13        -2.4656    2.4201    0.6922 H         1 <0>         0.0000
     26 H14        -3.4794    1.4501    1.8199 H         1 <0>         0.0000
     27 H15        -1.7857    1.8673    2.2644 H         1 <0>         0.0000
     28 H16        -1.1580   -4.7472    4.2218 H         1 <0>         0.0000
@<TRIPOS>BOND
     1    1    2 ar
     2    1    4 ar
     3    1   13 1
     4    2    5 ar
     5    2   14 1
     6    3    4 ar
     7    3   10 ar
     8    3   15 1
     9    4   11 1
    10    5   10 ar
    11    5   12 1
    12    6   11 1
    13    6   16 1
    14    6   17 1
    15    6   18 1
    16    7   12 1
    17    7   19 1
    18    7   20 1
    19    7   21 1
    20    8   12 1
    21    8   22 1
    22    8   23 1
    23    8   24 1
    24    9   12 1
    25    9   25 1
    26    9   26 1
    27    9   27 1
    28   11   28 1
