@<TRIPOS>MOLECULE
*****
   20    20     0     0     0
SMALL
NO_CHARGES

@<TRIPOS>ATOM
      1 C1          1.3879   -0.0684    1.6522 C.ar      1 <0>         0.0000
      2 C2          1.6520   -0.6227    2.8997 C.ar      1 <0>         0.0000
      3 C3         -0.6317   -1.3224    1.5803 C.ar      1 <0>         0.0000
      4 C4          0.2265   -0.4197    0.9733 C.ar      1 <0>         0.0000
      5 C5          0.7299   -1.5161    3.4206 C.ar      1 <0>         0.0000
      6 C6         -1.1827   -0.1267   -1.0889 C.2       1 <0>         0.0000
      7 C7         -1.1251    0.6575   -2.3758 C.3       1 <0>         0.0000
      8 N1         -0.4092   -1.8816    2.7908 N.ar      1 <0>         0.0000
      9 N2         -0.0653    0.1193   -0.2775 N.am      1 <0>         0.0000
     10 N3          1.0487   -2.0548    4.7061 N.pl3     1 <0>         0.0000
     11 O1          2.1097   -1.6937    5.2598 O.3       1 <0>         0.0000
     12 O2         -2.1287   -0.8697   -0.8479 O.2       1 <0>         0.0000
     13 O3          0.2546   -2.8671    5.2280 O.2       1 <0>         0.0000
     14 H1          2.0931    0.6352    1.2179 H         1 <0>         0.0000
     15 H2          2.5579   -0.3508    3.4326 H         1 <0>         0.0000
     16 H3         -1.5537   -1.6355    1.0997 H         1 <0>         0.0000
     17 H4         -0.6115    0.0720   -3.1435 H         1 <0>         0.0000
     18 H5         -0.5774    1.5907   -2.2163 H         1 <0>         0.0000
     19 H6         -2.1380    0.8959   -2.7133 H         1 <0>         0.0000
     20 H7          0.6192    0.7827   -0.6614 H         1 <0>         0.0000
@<TRIPOS>BOND
     1    1    2 ar
     2    1    4 ar
     3    1   14 1
     4    2    5 ar
     5    2   15 1
     6    3    4 ar
     7    3    8 ar
     8    3   16 1
     9    4    9 1
    10    5    8 ar
    11    5   10 1
    12    6    7 1
    13    6    9 am
    14    6   12 2
    15    7   17 1
    16    7   18 1
    17    7   19 1
    18    9   20 1
    19   10   11 1
    20   10   13 2
