@<TRIPOS>MOLECULE
*****
   26    26     0     0     0
SMALL
NO_CHARGES

@<TRIPOS>ATOM
      1 C1         -1.6792   -3.1976    2.1730 C.ar      1 <0>         0.0000
      2 C2         -2.1149   -1.6903    4.0103 C.ar      1 <0>         0.0000
      3 C3         -1.7110   -2.1233    1.2840 C.ar      1 <0>         0.0000
      4 C4         -2.1466   -0.6159    3.1213 C.ar      1 <0>         0.0000
      5 C5         -1.8812   -2.9812    3.5361 C.ar      1 <0>         0.0000
      6 C6         -1.9447   -0.8324    1.7581 C.ar      1 <0>         0.0000
      7 C7         -3.0899    0.1087   -0.2360 C.3       1 <0>         0.0000
      8 C8         -0.6221    0.4520    0.0919 C.3       1 <0>         0.0000
      9 C9         -2.2565    1.6723    1.4887 C.3       1 <0>         0.0000
     10 N1         -1.8491   -4.0674    4.4351 N.pl3     1 <0>         0.0000
     11 N2         -1.9788    0.3467    0.7827 N.4       1 <0>         0.0000
     12 H1         -1.4961   -4.1994    1.7929 H         1 <0>         0.0000
     13 H2         -2.2735   -1.5103    5.0705 H         1 <0>         0.0000
     14 H3         -1.5522   -2.3019    0.2238 H         1 <0>         0.0000
     15 H4         -2.3293    0.3862    3.5002 H         1 <0>         0.0000
     16 H5         -3.1006    0.9571   -0.9227 H         1 <0>         0.0000
     17 H6         -2.8662   -0.8205   -0.7634 H         1 <0>         0.0000
     18 H7         -4.0326    0.0334    0.3093 H         1 <0>         0.0000
     19 H8         -0.6637    1.2962   -0.5988 H         1 <0>         0.0000
     20 H9          0.1339    0.6124    0.8629 H         1 <0>         0.0000
     21 H10        -0.4456   -0.4836   -0.4422 H         1 <0>         0.0000
     22 H11        -2.2651    2.4585    0.7316 H         1 <0>         0.0000
     23 H12        -3.2271    1.5913    1.9818 H         1 <0>         0.0000
     24 H13        -1.4593    1.8368    2.2161 H         1 <0>         0.0000
     25 H14        -1.7276   -4.9933    4.0774 H         1 <0>         0.0000
     26 H15        -2.0421   -3.9054    5.4028 H         1 <0>         0.0000
@<TRIPOS>BOND
     1    1    3 ar
     2    1    5 ar
     3    1   12 1
     4    2    4 ar
     5    2    5 ar
     6    2   13 1
     7    3    6 ar
     8    3   14 1
     9    4    6 ar
    10    4   15 1
    11    5   10 1
    12    6   11 1
    13    7   11 1
    14    7   16 1
    15    7   17 1
    16    7   18 1
    17    8   11 1
    18    8   19 1
    19    8   20 1
    20    8   21 1
    21    9   11 1
    22    9   22 1
    23    9   23 1
    24    9   24 1
    25   10   25 1
    26   10   26 1
