@<TRIPOS>MOLECULE
*****
   32    32     0     0     0
SMALL
NO_CHARGES

@<TRIPOS>ATOM
      1 C1         -1.6792   -3.1976    2.1730 C.ar      1 <0>         0.0000
      2 C2         -2.1149   -1.6903    4.0103 C.ar      1 <0>         0.0000
      3 C3         -1.7110   -2.1233    1.2840 C.ar      1 <0>         0.0000
      4 C4         -2.1466   -0.6159    3.1213 C.ar      1 <0>         0.0000
      5 C5         -1.8812   -2.9812    3.5361 C.ar      1 <0>         0.0000
      6 C6         -1.9447   -0.8324    1.7581 C.ar      1 <0>         0.0000
      7 C7         -1.6069   -5.4125    3.9526 C.3       1 <0>         0.0000
      8 C8         -2.0440   -3.8510    5.8550 C.3       1 <0>         0.0000
      9 C9         -3.0899    0.1087   -0.2360 C.3       1 <0>         0.0000
     10 C10        -0.6221    0.4520    0.0919 C.3       1 <0>         0.0000
     11 C11        -2.2565    1.6723    1.4887 C.3       1 <0>         0.0000
     12 N1         -1.8491   -4.0674    4.4351 N.pl3     1 <0>         0.0000
     13 N2         -1.9788    0.3467    0.7827 N.4       1 <0>         0.0000
     14 H1         -1.4961   -4.1994    1.7929 H         1 <0>         0.0000
     15 H2         -2.2735   -1.5103    5.0705 H         1 <0>         0.0000
     16 H3         -1.5522   -2.3019    0.2238 H         1 <0>         0.0000
     17 H4         -2.3293    0.3862    3.5002 H         1 <0>         0.0000
     18 H5         -1.6177   -6.1186    4.7870 H         1 <0>         0.0000
     19 H6         -0.6333   -5.4671    3.4581 H         1 <0>         0.0000
     20 H7         -2.3805   -5.7022    3.2364 H         1 <0>         0.0000
     21 H8         -1.9863   -4.8018    6.3914 H         1 <0>         0.0000
     22 H9         -3.0243   -3.4026    6.0380 H         1 <0>         0.0000
     23 H10        -1.2735   -3.1800    6.2443 H         1 <0>         0.0000
     24 H11        -3.1006    0.9571   -0.9227 H         1 <0>         0.0000
     25 H12        -2.8662   -0.8205   -0.7634 H         1 <0>         0.0000
     26 H13        -4.0326    0.0334    0.3093 H         1 <0>         0.0000
     27 H14        -0.6637    1.2962   -0.5988 H         1 <0>         0.0000
     28 H15         0.1339    0.6124    0.8629 H         1 <0>         0.0000
     29 H16        -0.4456   -0.4836   -0.4422 H         1 <0>         0.0000
     30 H17        -2.2651    2.4585    0.7316 H         1 <0>         0.0000
     31 H18        -3.2271    1.5913    1.9818 H         1 <0>         0.0000
     32 H19        -1.4593    1.8368    2.2161 H         1 <0>         0.0000
@<TRIPOS>BOND
     1    1    3 ar
     2    1    5 ar
     3    1   14 1
     4    2    4 ar
     5    2    5 ar
     6    2   15 1
     7    3    6 ar
     8    3   16 1
     9    4    6 ar
    10    4   17 1
    11    5   12 1
    12    6   13 1
    13    7   12 1
    14    7   18 1
    15    7   19 1
    16    7   20 1
    17    8   12 1
    18    8   21 1
    19    8   22 1
    20    8   23 1
    21    9   13 1
    22    9   24 1
    23    9   25 1
    24    9   26 1
    25   10   13 1
    26   10   27 1
    27   10   28 1
    28   10   29 1
    29   11   13 1
    30   11   30 1
    31   11   31 1
    32   11   32 1
