@<TRIPOS>MOLECULE
*****
   23    23     0     0     0
SMALL
NO_CHARGES

@<TRIPOS>ATOM
      1 C1          0.2265   -0.4197    0.9733 C.ar      1 <0>         0.0000
      2 C2          1.6520   -0.6227    2.8997 C.ar      1 <0>         0.0000
      3 C3         -0.6317   -1.3224    1.5803 C.ar      1 <0>         0.0000
      4 C4          1.3879   -0.0684    1.6522 C.ar      1 <0>         0.0000
      5 C5          0.7299   -1.5161    3.4206 C.ar      1 <0>         0.0000
      6 C6          1.6875   -3.2778    4.6067 C.2       1 <0>         0.0000
      7 C7          3.7326    1.2631   -0.7387 C.3       1 <0>         0.0000
      8 C8          2.3363    0.8478   -0.3270 C.3       1 <0>         0.0000
      9 N1         -0.4092   -1.8816    2.7908 N.ar      1 <0>         0.0000
     10 N2          1.8876   -3.7787    5.8701 N.am      1 <0>         0.0000
     11 O1          2.0884   -3.8171    3.5799 O.2       1 <0>         0.0000
     12 O2          2.2625    0.8140    1.0978 O.3       1 <0>         0.0000
     13 O3          0.9676   -2.0756    4.6487 O.3       1 <0>         0.0000
     14 H1         -0.0052   -0.0035   -0.0009 H         1 <0>         0.0000
     15 H2          2.5522   -0.3626    3.4468 H         1 <0>         0.0000
     16 H3         -1.5509   -1.6292    1.0922 H         1 <0>         0.0000
     17 H4          3.9735    2.2576   -0.3531 H         1 <0>         0.0000
     18 H5          4.4738    0.5495   -0.3640 H         1 <0>         0.0000
     19 H6          3.8256    1.2752   -1.8297 H         1 <0>         0.0000
     20 H7          2.1016   -0.1476   -0.7158 H         1 <0>         0.0000
     21 H8          1.5971    1.5622   -0.7014 H         1 <0>         0.0000
     22 H9          2.3920   -4.6459    6.0207 H         1 <0>         0.0000
     23 H10         1.5370   -3.2971    6.6912 H         1 <0>         0.0000
@<TRIPOS>BOND
     1    1    3 ar
     2    1    4 ar
     3    1   14 1
     4    2    4 ar
     5    2    5 ar
     6    2   15 1
     7    3    9 ar
     8    3   16 1
     9    4   12 1
    10    5    9 ar
    11    5   13 1
    12    6   10 am
    13    6   11 2
    14    6   13 1
    15    7    8 1
    16    7   17 1
    17    7   18 1
    18    7   19 1
    19    8   12 1
    20    8   20 1
    21    8   21 1
    22   10   22 1
    23   10   23 1
