@<TRIPOS>MOLECULE
*****
   20    20     0     0     0
SMALL
NO_CHARGES

@<TRIPOS>ATOM
      1 C1          0.2265   -0.4197    0.9733 C.ar      1 <0>         0.0000
      2 C2          1.6520   -0.6227    2.8997 C.ar      1 <0>         0.0000
      3 C3         -0.6317   -1.3224    1.5803 C.ar      1 <0>         0.0000
      4 C4          1.3879   -0.0684    1.6522 C.ar      1 <0>         0.0000
      5 C5          0.7299   -1.5161    3.4206 C.ar      1 <0>         0.0000
      6 C6          2.3222    0.8748    1.0592 C.2       1 <0>         0.0000
      7 C7          0.2367   -2.9857    5.4090 C.2       1 <0>         0.0000
      8 N1         -0.4092   -1.8816    2.7908 N.ar      1 <0>         0.0000
      9 N2          0.8386   -3.3017    6.6196 N.am      1 <0>         0.0000
     10 N3          1.0042   -2.0688    4.6774 N.am      1 <0>         0.0000
     11 O1          2.1855    1.4241   -0.0391 O.2       1 <0>         0.0000
     12 O2         -0.8366   -3.4816    5.0761 O.2       1 <0>         0.0000
     13 O3          3.4022    1.1079    1.8547 O.3       1 <0>         0.0000
     14 H1         -0.0097   -0.0060   -0.0013 H         1 <0>         0.0000
     15 H2          2.5538   -0.3606    3.4453 H         1 <0>         0.0000
     16 H3         -1.5510   -1.6291    1.0923 H         1 <0>         0.0000
     17 H4          0.3793   -3.9577    7.2424 H         1 <0>         0.0000
     18 H5          1.7249   -2.8947    6.8984 H         1 <0>         0.0000
     19 H6          1.8738   -1.7723    5.1278 H         1 <0>         0.0000
     20 H7          4.0385    1.7441    1.4637 H         1 <0>         0.0000
@<TRIPOS>BOND
     1    1    3 ar
     2    1    4 ar
     3    1   14 1
     4    2    4 ar
     5    2    5 ar
     6    2   15 1
     7    3    8 ar
     8    3   16 1
     9    4    6 1
    10    5    8 ar
    11    5   10 1
    12    6   11 2
    13    6   13 1
    14    7    9 am
    15    7   10 am
    16    7   12 2
    17    9   17 1
    18    9   18 1
    19   10   19 1
    20   13   20 1
