@<TRIPOS>MOLECULE
*****
   31    31     0     0     0
SMALL
NO_CHARGES

@<TRIPOS>ATOM
      1 C1          0.7945   -0.0673   -3.5629 C.ar      1 <0>         0.0000
      2 C2         -0.1803   -0.1872   -4.5471 C.ar      1 <0>         0.0000
      3 C3          1.8143    1.6492   -4.8553 C.ar      1 <0>         0.0000
      4 C4          1.8142    0.8660   -3.7123 C.ar      1 <0>         0.0000
      5 C5         -0.0911    0.6432   -5.6526 C.ar      1 <0>         0.0000
      6 C6         -1.2060    1.2311   -7.8417 C.2       1 <0>         0.0000
      7 C7          5.9599    2.8796   -1.7144 C.3       1 <0>         0.0000
      8 C8         -2.7139    1.3611   -9.8313 C.3       1 <0>         0.0000
      9 C9          4.8237    1.8696   -1.6384 C.3       1 <0>         0.0000
     10 C10         3.8824    1.9509   -2.8342 C.3       1 <0>         0.0000
     11 N1          0.8846    1.5615   -5.8328 N.ar      1 <0>         0.0000
     12 N2          2.8015    1.0088   -2.7448 N.pl3     1 <0>         0.0000
     13 N3         -1.0765    0.5138   -6.6387 N.am      1 <0>         0.0000
     14 N4         -2.3296    0.8021   -8.5556 N.am      1 <0>         0.0000
     15 O1         -0.4547    2.1174   -8.2413 O.2       1 <0>         0.0000
     16 H1          0.7503   -0.7051   -2.6840 H         1 <0>         0.0000
     17 H2         -0.9806   -0.9121   -4.4378 H         1 <0>         0.0000
     18 H3          2.5843    2.3950   -5.0285 H         1 <0>         0.0000
     19 H4          6.5598    2.7278   -2.6174 H         1 <0>         0.0000
     20 H5          5.5578    3.8974   -1.7425 H         1 <0>         0.0000
     21 H6          6.6201    2.8037   -0.8449 H         1 <0>         0.0000
     22 H7         -3.3874    2.2090   -9.6824 H         1 <0>         0.0000
     23 H8         -3.2255    0.6071  -10.4356 H         1 <0>         0.0000
     24 H9         -1.8299    1.7051  -10.3749 H         1 <0>         0.0000
     25 H10         4.2501    2.0559   -0.7230 H         1 <0>         0.0000
     26 H11         5.2440    0.8601   -1.5582 H         1 <0>         0.0000
     27 H12         3.4340    2.9478   -2.8906 H         1 <0>         0.0000
     28 H13         4.4143    1.7629   -3.7722 H         1 <0>         0.0000
     29 H14         2.7507    0.4059   -1.9269 H         1 <0>         0.0000
     30 H15        -1.7990   -0.1912   -6.4715 H         1 <0>         0.0000
     31 H16        -2.9019    0.0635   -8.1589 H         1 <0>         0.0000
@<TRIPOS>BOND
     1    1    2 ar
     2    1    4 ar
     3    1   16 1
     4    2    5 ar
     5    2   17 1
     6    3    4 ar
     7    3   11 ar
     8    3   18 1
     9    4   12 1
    10    5   11 ar
    11    5   13 1
    12    6   13 am
    13    6   14 am
    14    6   15 2
    15    7    9 1
    16    7   19 1
    17    7   20 1
    18    7   21 1
    19    8   14 1
    20    8   22 1
    21    8   23 1
    22    8   24 1
    23    9   10 1
    24    9   25 1
    25    9   26 1
    26   10   12 1
    27   10   27 1
    28   10   28 1
    29   12   29 1
    30   13   30 1
    31   14   31 1
