@<TRIPOS>MOLECULE
*****
   19    19     0     0     0
SMALL
NO_CHARGES

@<TRIPOS>ATOM
      1 C1          1.3879   -0.0684    1.6522 C.ar      1 <0>         0.0000
      2 C2          1.6520   -0.6227    2.8997 C.ar      1 <0>         0.0000
      3 C3         -0.6317   -1.3224    1.5803 C.ar      1 <0>         0.0000
      4 C4          0.2265   -0.4197    0.9733 C.ar      1 <0>         0.0000
      5 C5          0.7299   -1.5161    3.4206 C.ar      1 <0>         0.0000
      6 C6          0.9552   -2.1254    4.7200 C.2       1 <0>         0.0000
      7 C7         -0.8192   -0.5769   -1.2867 C.3       1 <0>         0.0000
      8 N1         -0.4092   -1.8816    2.7908 N.ar      1 <0>         0.0000
      9 N2         -0.0656    0.1233   -0.2882 N.pl3     1 <0>         0.0000
     10 O1          1.9330   -1.9211    5.4486 O.2       1 <0>         0.0000
     11 O2         -0.0470   -2.9747    5.0793 O.3       1 <0>         0.0000
     12 H1          2.0922    0.6367    1.2186 H         1 <0>         0.0000
     13 H2          2.5545   -0.3557    3.4391 H         1 <0>         0.0000
     14 H3         -1.5546   -1.6341    1.1005 H         1 <0>         0.0000
     15 H4         -1.1149   -1.5607   -0.9130 H         1 <0>         0.0000
     16 H5         -0.2178   -0.7098   -2.1901 H         1 <0>         0.0000
     17 H6         -1.7198   -0.0133   -1.5449 H         1 <0>         0.0000
     18 H7          0.2792    1.0474   -0.4829 H         1 <0>         0.0000
     19 H8         -0.7576   -3.0400    4.4061 H         1 <0>         0.0000
@<TRIPOS>BOND
     1    1    2 ar
     2    1    4 ar
     3    1   12 1
     4    2    5 ar
     5    2   13 1
     6    3    4 ar
     7    3    8 ar
     8    3   14 1
     9    4    9 1
    10    5    6 1
    11    5    8 ar
    12    6   10 2
    13    6   11 1
    14    7    9 1
    15    7   15 1
    16    7   16 1
    17    7   17 1
    18    9   18 1
    19   11   19 1
