@<TRIPOS>MOLECULE
*****
   19    19     0     0     0
SMALL
NO_CHARGES

@<TRIPOS>ATOM
      1 C1          1.3879   -0.0684    1.6522 C.ar      1 <0>         0.0000
      2 C2          1.6520   -0.6227    2.8997 C.ar      1 <0>         0.0000
      3 C3         -0.6317   -1.3224    1.5803 C.ar      1 <0>         0.0000
      4 C4          0.2265   -0.4197    0.9733 C.ar      1 <0>         0.0000
      5 C5          0.7299   -1.5161    3.4206 C.ar      1 <0>         0.0000
      6 C6          0.2373   -2.9853    5.4094 C.2       1 <0>         0.0000
      7 N1         -0.4092   -1.8816    2.7908 N.ar      1 <0>         0.0000
      8 N2          0.8394   -3.3009    6.6200 N.am      1 <0>         0.0000
      9 N3          1.0045   -2.0684    4.6774 N.am      1 <0>         0.0000
     10 N4         -0.0700    0.1285   -0.2996 N.pl3     1 <0>         0.0000
     11 O1          0.7341    0.9439   -0.8158 O.3       1 <0>         0.0000
     12 O2         -0.8360   -3.4815    5.0768 O.2       1 <0>         0.0000
     13 O3         -1.1299   -0.2140   -0.8803 O.2       1 <0>         0.0000
     14 H1          2.0946    0.6355    1.2200 H         1 <0>         0.0000
     15 H2          2.5562   -0.3542    3.4364 H         1 <0>         0.0000
     16 H3         -1.5545   -1.6364    1.1013 H         1 <0>         0.0000
     17 H4          0.3804   -3.9568    7.2431 H         1 <0>         0.0000
     18 H5          1.7256   -2.8936    6.8986 H         1 <0>         0.0000
     19 H6          1.8741   -1.7716    5.1277 H         1 <0>         0.0000
@<TRIPOS>BOND
     1    1    2 ar
     2    1    4 ar
     3    1   14 1
     4    2    5 ar
     5    2   15 1
     6    3    4 ar
     7    3    7 ar
     8    3   16 1
     9    4   10 1
    10    5    7 ar
    11    5    9 1
    12    6    8 am
    13    6    9 am
    14    6   12 2
    15    8   17 1
    16    8   18 1
    17    9   19 1
    18   10   11 1
    19   10   13 2
