@<TRIPOS>MOLECULE
*****
   21    21     0     0     0
SMALL
NO_CHARGES

@<TRIPOS>ATOM
      1 C1          1.3879   -0.0684    1.6522 C.ar      1 <0>         0.0000
      2 C2          1.6520   -0.6227    2.8997 C.ar      1 <0>         0.0000
      3 C3         -0.6317   -1.3224    1.5803 C.ar      1 <0>         0.0000
      4 C4          0.2265   -0.4197    0.9733 C.ar      1 <0>         0.0000
      5 C5          0.7299   -1.5161    3.4206 C.ar      1 <0>         0.0000
      6 C6          0.9548   -2.1253    4.7201 C.2       1 <0>         0.0000
      7 C7         -0.5050    2.0989   -1.4958 C.3       1 <0>         0.0000
      8 C8          0.4326    1.4186   -0.5213 C.3       1 <0>         0.0000
      9 N1         -0.4092   -1.8816    2.7908 N.ar      1 <0>         0.0000
     10 O1          1.9323   -1.9211    5.4490 O.2       1 <0>         0.0000
     11 O2         -0.0475   -2.9746    5.0791 O.3       1 <0>         0.0000
     12 O3         -0.0568    0.1047   -0.2446 O.3       1 <0>         0.0000
     13 H1          2.0899    0.6356    1.2144 H         1 <0>         0.0000
     14 H2          2.5549   -0.3563    3.4389 H         1 <0>         0.0000
     15 H3         -1.5525   -1.6325    1.0962 H         1 <0>         0.0000
     16 H4         -0.5617    1.5427   -2.4356 H         1 <0>         0.0000
     17 H5         -1.5111    2.1795   -1.0714 H         1 <0>         0.0000
     18 H6         -0.1669    3.1185   -1.7087 H         1 <0>         0.0000
     19 H7          0.4848    1.9799    0.4164 H         1 <0>         0.0000
     20 H8          1.4371    1.3382   -0.9473 H         1 <0>         0.0000
     21 H9         -0.7579   -3.0399    4.4057 H         1 <0>         0.0000
@<TRIPOS>BOND
     1    1    2 ar
     2    1    4 ar
     3    1   13 1
     4    2    5 ar
     5    2   14 1
     6    3    4 ar
     7    3    9 ar
     8    3   15 1
     9    4   12 1
    10    5    6 1
    11    5    9 ar
    12    6   10 2
    13    6   11 1
    14    7    8 1
    15    7   16 1
    16    7   17 1
    17    7   18 1
    18    8   12 1
    19    8   19 1
    20    8   20 1
    21   11   21 1
