@<TRIPOS>MOLECULE
*****
   23    23     0     0     0
SMALL
NO_CHARGES

@<TRIPOS>ATOM
      1 C1          1.2507   -0.6650   -7.0341 C.1       1 <0>         0.0000
      2 C2          0.5592    1.4314   -3.5161 C.ar      1 <0>         0.0000
      3 C3          2.0768    0.1581   -4.8798 C.ar      1 <0>         0.0000
      4 C4         -0.3912    1.2615   -4.5099 C.ar      1 <0>         0.0000
      5 C5          1.0584    0.0450   -5.8125 C.ar      1 <0>         0.0000
      6 C6          1.8142    0.8660   -3.7123 C.ar      1 <0>         0.0000
      7 C7          3.6878    2.4664    0.6651 C.3       1 <0>         0.0000
      8 C8          3.8789    1.7313   -0.6539 C.3       1 <0>         0.0000
      9 C9          2.6189    1.7221   -1.5111 C.3       1 <0>         0.0000
     10 N1          1.4072   -1.2428   -8.0284 N.1       1 <0>         0.0000
     11 N2         -0.1732    0.5805   -5.6572 N.ar      1 <0>         0.0000
     12 N3          2.8015    1.0088   -2.7448 N.pl3     1 <0>         0.0000
     13 H1          0.3220    1.9907   -2.6173 H         1 <0>         0.0000
     14 H2          3.0512   -0.2903   -5.0506 H         1 <0>         0.0000
     15 H3         -1.3852    1.6844   -4.4072 H         1 <0>         0.0000
     16 H4          3.3968    3.5079    0.4950 H         1 <0>         0.0000
     17 H5          2.8987    1.9864    1.2528 H         1 <0>         0.0000
     18 H6          4.6041    2.4575    1.2634 H         1 <0>         0.0000
     19 H7          4.1685    0.6961   -0.4392 H         1 <0>         0.0000
     20 H8          4.7066    2.1918   -1.2063 H         1 <0>         0.0000
     21 H9          1.8038    1.2277   -0.9733 H         1 <0>         0.0000
     22 H10         2.2977    2.7393   -1.7563 H         1 <0>         0.0000
     23 H11         3.7061    0.5810   -2.9277 H         1 <0>         0.0000
@<TRIPOS>BOND
     1    1    5 1
     2    1   10 3
     3    2    4 ar
     4    2    6 ar
     5    2   13 1
     6    3    5 ar
     7    3    6 ar
     8    3   14 1
     9    4   11 ar
    10    4   15 1
    11    5   11 ar
    12    6   12 1
    13    7    8 1
    14    7   16 1
    15    7   17 1
    16    7   18 1
    17    8    9 1
    18    8   19 1
    19    8   20 1
    20    9   12 1
    21    9   21 1
    22    9   22 1
    23   12   23 1
