@<TRIPOS>MOLECULE
*****
   28    28     0     0     0
SMALL
NO_CHARGES

@<TRIPOS>ATOM
      1 C1          1.8851   -1.0363   -0.1124 C.ar      1 <0>         0.0000
      2 C2          2.8783   -1.6520    2.0022 C.ar      1 <0>         0.0000
      3 C3          0.8066   -0.4630    0.5610 C.ar      1 <0>         0.0000
      4 C4          1.7997   -1.0786    2.6757 C.ar      1 <0>         0.0000
      5 C5          2.9210   -1.6309    0.6081 C.ar      1 <0>         0.0000
      6 C6          0.7638   -0.4841    1.9551 C.ar      1 <0>         0.0000
      7 C7          4.0455   -2.2288   -0.0940 C.2       1 <0>         0.0000
      8 C8         -0.5323    0.1649    4.0100 C.2       1 <0>         0.0000
      9 C9         -1.8262    0.8680    4.3356 C.3       1 <0>         0.0000
     10 C10         6.9981   -3.8985    1.3180 C.3       1 <0>         0.0000
     11 C11         6.1154   -3.3773    0.2041 C.3       1 <0>         0.0000
     12 N1         -0.3154    0.0896    2.6277 N.am      1 <0>         0.0000
     13 O1          4.1672   -2.2565   -1.3259 O.2       1 <0>         0.0000
     14 O2          0.1934   -0.2604    4.9030 O.2       1 <0>         0.0000
     15 O3          4.9582   -2.7587    0.7768 O.3       1 <0>         0.0000
     16 H1          1.9081   -1.0148   -1.1988 H         1 <0>         0.0000
     17 H2          3.6801   -2.1126    2.5736 H         1 <0>         0.0000
     18 H3          0.0045   -0.0019   -0.0101 H         1 <0>         0.0000
     19 H4          1.7769   -1.1011    3.7624 H         1 <0>         0.0000
     20 H5         -2.6406    0.1399    4.3866 H         1 <0>         0.0000
     21 H6         -2.0549    1.6015    3.5571 H         1 <0>         0.0000
     22 H7         -1.7380    1.3868    5.2947 H         1 <0>         0.0000
     23 H8          7.3247   -3.0840    1.9706 H         1 <0>         0.0000
     24 H9          6.4629   -4.6405    1.9196 H         1 <0>         0.0000
     25 H10         7.8818   -4.3986    0.9081 H         1 <0>         0.0000
     26 H11         5.7923   -4.1968   -0.4448 H         1 <0>         0.0000
     27 H12         6.6514   -2.6354   -0.3954 H         1 <0>         0.0000
     28 H13        -1.0452    0.5118    2.0420 H         1 <0>         0.0000
@<TRIPOS>BOND
     1    1    3 ar
     2    1    5 ar
     3    1   16 1
     4    2    4 ar
     5    2    5 ar
     6    2   17 1
     7    3    6 ar
     8    3   18 1
     9    4    6 ar
    10    4   19 1
    11    5    7 1
    12    6   12 1
    13    7   13 2
    14    7   15 1
    15    8    9 1
    16    8   12 am
    17    8   14 2
    18    9   20 1
    19    9   21 1
    20    9   22 1
    21   10   11 1
    22   10   23 1
    23   10   24 1
    24   10   25 1
    25   11   15 1
    26   11   26 1
    27   11   27 1
    28   12   28 1
