@<TRIPOS>MOLECULE
*****
   19    19     0     0     0
SMALL
NO_CHARGES

@<TRIPOS>ATOM
      1 C1          1.8851   -1.0363   -0.1124 C.ar      1 <0>         0.0000
      2 C2          2.8783   -1.6520    2.0022 C.ar      1 <0>         0.0000
      3 C3          0.8066   -0.4630    0.5610 C.ar      1 <0>         0.0000
      4 C4          1.7997   -1.0786    2.6757 C.ar      1 <0>         0.0000
      5 C5          2.9210   -1.6309    0.6081 C.ar      1 <0>         0.0000
      6 C6          0.7638   -0.4841    1.9551 C.ar      1 <0>         0.0000
      7 C7          4.7497   -3.3206    0.4466 C.3       1 <0>         0.0000
      8 N1          4.0107   -2.2118   -0.0730 N.pl3     1 <0>         0.0000
      9 N2         -0.3314    0.1036    2.6416 N.pl3     1 <0>         0.0000
     10 O1         -1.2511    0.6372    1.9754 O.3       1 <0>         0.0000
     11 O2         -0.3494    0.0737    3.8960 O.2       1 <0>         0.0000
     12 H1          1.9077   -1.0152   -1.1991 H         1 <0>         0.0000
     13 H2          3.6805   -2.1128    2.5731 H         1 <0>         0.0000
     14 H3          0.0059   -0.0025   -0.0126 H         1 <0>         0.0000
     15 H4          1.7802   -1.1005    3.7625 H         1 <0>         0.0000
     16 H5          4.3413   -3.6241    1.4141 H         1 <0>         0.0000
     17 H6          5.8000   -3.0465    0.5783 H         1 <0>         0.0000
     18 H7          4.6925   -4.1686   -0.2412 H         1 <0>         0.0000
     19 H8          4.2595   -1.8112   -0.9578 H         1 <0>         0.0000
@<TRIPOS>BOND
     1    1    3 ar
     2    1    5 ar
     3    1   12 1
     4    2    4 ar
     5    2    5 ar
     6    2   13 1
     7    3    6 ar
     8    3   14 1
     9    4    6 ar
    10    4   15 1
    11    5    8 1
    12    6    9 1
    13    7    8 1
    14    7   16 1
    15    7   17 1
    16    7   18 1
    17    8   19 1
    18    9   10 1
    19    9   11 2
