@<TRIPOS>MOLECULE
*****
   36    36     0     0     0
SMALL
NO_CHARGES

@<TRIPOS>ATOM
      1 C1          6.0020    0.8268   -2.4316 C.ar      1 <0>         0.0000
      2 C2          6.1424   -1.0594   -0.9283 C.ar      1 <0>         0.0000
      3 C3          7.2460    0.4928   -2.9668 C.ar      1 <0>         0.0000
      4 C4          7.3865   -1.3933   -1.4636 C.ar      1 <0>         0.0000
      5 C5          5.4502    0.0507   -1.4123 C.ar      1 <0>         0.0000
      6 C6          7.9382   -0.6172   -2.4828 C.ar      1 <0>         0.0000
      7 C7          3.4898   -0.2708    0.1467 C.2       1 <0>         0.0000
      8 C8          1.8387    0.0728    2.0100 C.3       1 <0>         0.0000
      9 C9          2.5797    2.0158    0.6734 C.3       1 <0>         0.0000
     10 C10        10.2598    0.1855   -2.8568 C.3       1 <0>         0.0000
     11 C11         9.1323   -1.2796   -4.5591 C.3       1 <0>         0.0000
     12 C12         9.9052   -2.2199   -2.4073 C.3       1 <0>         0.0000
     13 N1          4.1859    0.3893   -0.8691 N.am      1 <0>         0.0000
     14 N2          2.6626    0.5775    0.9189 N.am      1 <0>         0.0000
     15 N3          9.2273   -0.9633   -3.0390 N.4       1 <0>         0.0000
     16 O1          3.5554   -1.4836    0.3588 O.2       1 <0>         0.0000
     17 H1          5.4716    1.6947   -2.8156 H         1 <0>         0.0000
     18 H2          5.7224   -1.6714   -0.1341 H         1 <0>         0.0000
     19 H3          7.6672    1.1036   -3.7613 H         1 <0>         0.0000
     20 H4          7.9179   -2.2602   -1.0794 H         1 <0>         0.0000
     21 H5          2.3998    0.0993    2.9478 H         1 <0>         0.0000
     22 H6          1.5368   -0.9588    1.8097 H         1 <0>         0.0000
     23 H7          0.9402    0.6859    2.1200 H         1 <0>         0.0000
     24 H8          1.7849    2.2288   -0.0462 H         1 <0>         0.0000
     25 H9          3.5268    2.3858    0.2714 H         1 <0>         0.0000
     26 H10         2.3630    2.5463    1.6044 H         1 <0>         0.0000
     27 H11        11.2039   -0.1413   -3.2964 H         1 <0>         0.0000
     28 H12         9.8722    1.0676   -3.3699 H         1 <0>         0.0000
     29 H13        10.3685    0.3702   -1.7863 H         1 <0>         0.0000
     30 H14        10.1345   -1.5311   -4.9110 H         1 <0>         0.0000
     31 H15         8.4497   -2.1224   -4.6830 H         1 <0>         0.0000
     32 H16         8.7517   -0.3888   -5.0625 H         1 <0>         0.0000
     33 H17        10.8618   -2.3717   -2.9105 H         1 <0>         0.0000
     34 H18        10.0481   -2.0230   -1.3431 H         1 <0>         0.0000
     35 H19         9.2405   -3.0718   -2.5629 H         1 <0>         0.0000
     36 H20         3.7329    1.2071   -1.2643 H         1 <0>         0.0000
@<TRIPOS>BOND
     1    1    3 ar
     2    1    5 ar
     3    1   17 1
     4    2    4 ar
     5    2    5 ar
     6    2   18 1
     7    3    6 ar
     8    3   19 1
     9    4    6 ar
    10    4   20 1
    11    5   13 1
    12    6   15 1
    13    7   13 am
    14    7   14 am
    15    7   16 2
    16    8   14 1
    17    8   21 1
    18    8   22 1
    19    8   23 1
    20    9   14 1
    21    9   24 1
    22    9   25 1
    23    9   26 1
    24   10   15 1
    25   10   27 1
    26   10   28 1
    27   10   29 1
    28   11   15 1
    29   11   30 1
    30   11   31 1
    31   11   32 1
    32   12   15 1
    33   12   33 1
    34   12   34 1
    35   12   35 1
    36   13   36 1
