@<TRIPOS>MOLECULE
*****
   35    35     0     0     0
SMALL
NO_CHARGES

@<TRIPOS>ATOM
      1 C1          5.5344   -0.5393   -2.6685 C.ar      1 <0>         0.0000
      2 C2          6.6112    0.3066   -0.6912 C.ar      1 <0>         0.0000
      3 C3          6.7935   -0.8518   -3.1551 C.ar      1 <0>         0.0000
      4 C4          5.4502    0.0507   -1.4123 C.ar      1 <0>         0.0000
      5 C5          7.8221   -0.0440   -1.2663 C.ar      1 <0>         0.0000
      6 C6          3.9204    0.9825    0.3676 C.2       1 <0>         0.0000
      7 C7          2.2964    2.4657    1.5839 C.3       1 <0>         0.0000
      8 C8          1.9311    1.9758   -0.8114 C.3       1 <0>         0.0000
      9 C9          9.0240   -0.5237    0.8548 C.3       1 <0>         0.0000
     10 C10         9.1908    1.7441   -0.2152 C.3       1 <0>         0.0000
     11 C11        10.3549   -0.1999   -1.2038 C.3       1 <0>         0.0000
     12 N1          7.9437   -0.6185   -2.4840 N.ar      1 <0>         0.0000
     13 N2          4.1859    0.3893   -0.8691 N.am      1 <0>         0.0000
     14 N3          2.7540    1.7823    0.3807 N.am      1 <0>         0.0000
     15 N4          9.0287    0.2268   -0.5049 N.4       1 <0>         0.0000
     16 O1          4.6105    0.8231    1.3768 O.2       1 <0>         0.0000
     17 H1          4.6486   -0.7525   -3.2572 H         1 <0>         0.0000
     18 H2          6.5676    0.7663    0.2915 H         1 <0>         0.0000
     19 H3          6.9135   -1.3133   -4.1298 H         1 <0>         0.0000
     20 H4          2.7391    3.4636    1.6405 H         1 <0>         0.0000
     21 H5          2.5876    1.9006    2.4734 H         1 <0>         0.0000
     22 H6          1.2076    2.5638    1.5719 H         1 <0>         0.0000
     23 H7          1.1590    1.2039   -0.8644 H         1 <0>         0.0000
     24 H8          2.5496    1.9172   -1.7112 H         1 <0>         0.0000
     25 H9          1.4475    2.9559   -0.7818 H         1 <0>         0.0000
     26 H10         9.9522   -0.2790    1.3744 H         1 <0>         0.0000
     27 H11         8.1553   -0.1832    1.4214 H         1 <0>         0.0000
     28 H12         8.9617   -1.5933    0.6457 H         1 <0>         0.0000
     29 H13        10.1110    1.8785    0.3564 H         1 <0>         0.0000
     30 H14         9.2447    2.2634   -1.1739 H         1 <0>         0.0000
     31 H15         8.3212    2.0694    0.3591 H         1 <0>         0.0000
     32 H16        11.1806    0.0543   -0.5367 H         1 <0>         0.0000
     33 H17        10.3088   -1.2764   -1.3791 H         1 <0>         0.0000
     34 H18        10.4279    0.3483   -2.1450 H         1 <0>         0.0000
     35 H19         3.3786    0.1757   -1.4461 H         1 <0>         0.0000
@<TRIPOS>BOND
     1    1    3 ar
     2    1    4 ar
     3    1   17 1
     4    2    4 ar
     5    2    5 ar
     6    2   18 1
     7    3   12 ar
     8    3   19 1
     9    4   13 1
    10    5   12 ar
    11    5   15 1
    12    6   13 am
    13    6   14 am
    14    6   16 2
    15    7   14 1
    16    7   20 1
    17    7   21 1
    18    7   22 1
    19    8   14 1
    20    8   23 1
    21    8   24 1
    22    8   25 1
    23    9   15 1
    24    9   26 1
    25    9   27 1
    26    9   28 1
    27   10   15 1
    28   10   29 1
    29   10   30 1
    30   10   31 1
    31   11   15 1
    32   11   32 1
    33   11   33 1
    34   11   34 1
    35   13   35 1
