@<TRIPOS>MOLECULE
*****
   21    22     0     0     0
SMALL
NO_CHARGES

@<TRIPOS>ATOM
      1 C1          1.8851   -1.0363   -0.1124 C.ar      1 <0>         0.0000
      2 C2          2.9210   -1.6309    0.6081 C.ar      1 <0>         0.0000
      3 C3          0.8066   -0.4630    0.5610 C.ar      1 <0>         0.0000
      4 C4          2.8783   -1.6520    2.0022 C.ar      1 <0>         0.0000
      5 C5          0.7638   -0.4841    1.9551 C.ar      1 <0>         0.0000
      6 C6          1.1134   -0.0805    4.8154 C.ar      1 <0>         0.0000
      7 C7          2.3543   -2.1407    4.8231 C.ar      1 <0>         0.0000
      8 C8          1.0993   -0.1467    6.1993 C.ar      1 <0>         0.0000
      9 C9          2.2848   -2.1146    6.2067 C.ar      1 <0>         0.0000
     10 C10         1.7997   -1.0786    2.6757 C.ar      1 <0>         0.0000
     11 C11         1.7549   -1.1005    4.1216 C.ar      1 <0>         0.0000
     12 N1          1.6705   -1.1409    6.9154 N.ar      1 <0>         0.0000
     13 H1          1.9174   -1.0212   -1.1979 H         1 <0>         0.0000
     14 H2          3.7605   -2.0787    0.0844 H         1 <0>         0.0000
     15 H3         -0.0009   -0.0015    0.0001 H         1 <0>         0.0000
     16 H4          3.6927   -2.1196    2.5504 H         1 <0>         0.0000
     17 H5         -0.0840   -0.0332    2.4655 H         1 <0>         0.0000
     18 H6          0.6343    0.7470    4.3019 H         1 <0>         0.0000
     19 H7          2.8651   -2.9537    4.3171 H         1 <0>         0.0000
     20 H8          0.6111    0.6236    6.7868 H         1 <0>         0.0000
     21 H9          2.7381   -2.9018    6.8003 H         1 <0>         0.0000
@<TRIPOS>BOND
     1    1    3 ar
     2    1    2 ar
     3    1   13 1
     4    2    4 ar
     5    2   14 1
     6    3    5 ar
     7    3   15 1
     8    4   10 ar
     9    4   16 1
    10    5   10 ar
    11    5   17 1
    12    6    8 ar
    13    6   11 ar
    14    6   18 1
    15    7    9 ar
    16    7   11 ar
    17    7   19 1
    18    8   12 ar
    19    8   20 1
    20    9   12 ar
    21    9   21 1
    22   10   11 1
