@<TRIPOS>MOLECULE
*****
   21    21     0     0     0
SMALL
NO_CHARGES

@<TRIPOS>ATOM
      1 C1          1.8851   -1.0363   -0.1124 C.ar      1 <0>         0.0000
      2 C2          0.8066   -0.4630    0.5610 C.ar      1 <0>         0.0000
      3 C3          2.9210   -1.6309    0.6081 C.ar      1 <0>         0.0000
      4 C4          1.7997   -1.0786    2.6757 C.ar      1 <0>         0.0000
      5 C5          0.7638   -0.4841    1.9551 C.ar      1 <0>         0.0000
      6 C6          2.8783   -1.6520    2.0022 C.ar      1 <0>         0.0000
      7 C7          5.0698   -2.8652    2.2256 C.2       1 <0>         0.0000
      8 C8          5.9480   -3.3841    3.3364 C.3       1 <0>         0.0000
      9 N1         -0.3271    0.0950    2.6357 N.pl3     1 <0>         0.0000
     10 N2          3.9153   -2.2457    2.7225 N.am      1 <0>         0.0000
     11 O1          5.3954   -3.0031    1.0510 O.2       1 <0>         0.0000
     12 H1          1.9183   -1.0200   -1.1980 H         1 <0>         0.0000
     13 H2          0.0049   -0.0019   -0.0104 H         1 <0>         0.0000
     14 H3          3.7569   -2.0735    0.0721 H         1 <0>         0.0000
     15 H4          1.7674   -1.0949    3.7630 H         1 <0>         0.0000
     16 H5          5.6676   -4.4127    3.5802 H         1 <0>         0.0000
     17 H6          5.8239   -2.7622    4.2276 H         1 <0>         0.0000
     18 H7          6.9972   -3.3537    3.0279 H         1 <0>         0.0000
     19 H8         -1.0399    0.5589    2.1096 H         1 <0>         0.0000
     20 H9         -0.3232    0.1152    3.6355 H         1 <0>         0.0000
     21 H10         3.8275   -2.2292    3.7452 H         1 <0>         0.0000
@<TRIPOS>BOND
     1    1    2 ar
     2    1    3 ar
     3    1   12 1
     4    2    5 ar
     5    2   13 1
     6    3    6 ar
     7    3   14 1
     8    4    5 ar
     9    4    6 ar
    10    4   15 1
    11    5    9 1
    12    6   10 1
    13    7    8 1
    14    7   10 am
    15    7   11 2
    16    8   16 1
    17    8   17 1
    18    8   18 1
    19    9   19 1
    20    9   20 1
    21   10   21 1
