@<TRIPOS>MOLECULE
*****
   25    25     0     0     0
SMALL
NO_CHARGES

@<TRIPOS>ATOM
      1 C1         -1.8447   -2.9296    3.5008 C.ar      1 <0>         0.0000
      2 C2         -0.7271   -1.1428    2.3420 C.ar      1 <0>         0.0000
      3 C3         -3.0123   -2.5391    2.8652 C.ar      1 <0>         0.0000
      4 C4         -0.6847   -2.2129    3.2288 C.ar      1 <0>         0.0000
      5 C5         -1.9447   -0.8324    1.7581 C.ar      1 <0>         0.0000
      6 C6         -1.0264    0.0549   -0.3733 C.3       1 <0>         0.0000
      7 C7         -1.5589    1.6115    1.5264 C.3       1 <0>         0.0000
      8 C8         -3.3733    0.5769    0.2038 C.3       1 <0>         0.0000
      9 N1         -3.0925   -1.5053    1.9978 N.ar      1 <0>         0.0000
     10 N2          0.5380   -2.5730    3.8544 N.pl3     1 <0>         0.0000
     11 N3         -1.9788    0.3467    0.7827 N.4       1 <0>         0.0000
     12 O1          0.5513   -3.5425    4.6509 O.3       1 <0>         0.0000
     13 O2          1.5722   -1.9116    3.5940 O.2       1 <0>         0.0000
     14 H1         -1.8492   -3.7704    4.1868 H         1 <0>         0.0000
     15 H2          0.1668   -0.5690    2.1147 H         1 <0>         0.0000
     16 H3         -3.9442   -3.0652    3.0430 H         1 <0>         0.0000
     17 H4         -1.0627    0.9040   -1.0583 H         1 <0>         0.0000
     18 H5         -0.0250   -0.0715    0.0426 H         1 <0>         0.0000
     19 H6         -1.3661   -0.8595   -0.8634 H         1 <0>         0.0000
     20 H7         -1.5887    2.4411    0.8175 H         1 <0>         0.0000
     21 H8         -2.2648    1.7683    2.3441 H         1 <0>         0.0000
     22 H9         -0.5471    1.4557    1.9056 H         1 <0>         0.0000
     23 H10        -3.3158    1.4280   -0.4772 H         1 <0>         0.0000
     24 H11        -3.6692   -0.3306   -0.3259 H         1 <0>         0.0000
     25 H12        -4.0500    0.7846    1.0350 H         1 <0>         0.0000
@<TRIPOS>BOND
     1    1    3 ar
     2    1    4 ar
     3    1   14 1
     4    2    4 ar
     5    2    5 ar
     6    2   15 1
     7    3    9 ar
     8    3   16 1
     9    4   10 1
    10    5    9 ar
    11    5   11 1
    12    6   11 1
    13    6   17 1
    14    6   18 1
    15    6   19 1
    16    7   11 1
    17    7   20 1
    18    7   21 1
    19    7   22 1
    20    8   11 1
    21    8   23 1
    22    8   24 1
    23    8   25 1
    24   10   12 1
    25   10   13 2
