@<TRIPOS>MOLECULE
*****
   30    30     0     0     0
SMALL
NO_CHARGES

@<TRIPOS>ATOM
      1 C1          0.9888    1.4541   -5.8638 C.ar      1 <0>         0.0000
      2 C2          1.9676    1.5873   -4.8853 C.ar      1 <0>         0.0000
      3 C3         -0.1587   -0.0626   -4.4357 C.ar      1 <0>         0.0000
      4 C4         -0.0979    0.6154   -5.6426 C.ar      1 <0>         0.0000
      5 C5          1.8142    0.8660   -3.7123 C.ar      1 <0>         0.0000
      6 C6          3.9925   -0.0359    0.7233 C.3       1 <0>         0.0000
      7 C7         -1.0281    1.1738   -7.8748 C.3       1 <0>         0.0000
      8 C8         -2.2258   -0.4298   -6.3773 C.3       1 <0>         0.0000
      9 C9          3.9876    0.6949   -0.6119 C.3       1 <0>         0.0000
     10 C10         2.7879    0.3307   -1.4782 C.3       1 <0>         0.0000
     11 N1          0.7726    0.0415   -3.4614 N.ar      1 <0>         0.0000
     12 N2          2.8015    1.0088   -2.7448 N.pl3     1 <0>         0.0000
     13 N3         -1.1017    0.4595   -6.6123 N.pl3     1 <0>         0.0000
     14 H1          1.0819    2.0078   -6.7943 H         1 <0>         0.0000
     15 H2          2.8193    2.2392   -5.0498 H         1 <0>         0.0000
     16 H3         -0.9824   -0.7316   -4.2053 H         1 <0>         0.0000
     17 H4          3.0892    0.1916    1.2982 H         1 <0>         0.0000
     18 H5          4.0262   -1.1179    0.5602 H         1 <0>         0.0000
     19 H6          4.8635    0.2397    1.3259 H         1 <0>         0.0000
     20 H7         -1.8925    0.9273   -8.4969 H         1 <0>         0.0000
     21 H8         -0.1172    0.8976   -8.4128 H         1 <0>         0.0000
     22 H9         -1.0176    2.2527   -7.6986 H         1 <0>         0.0000
     23 H10        -2.8989   -0.4202   -7.2385 H         1 <0>         0.0000
     24 H11        -2.7822   -0.1098   -5.4921 H         1 <0>         0.0000
     25 H12        -1.8722   -1.4521   -6.2183 H         1 <0>         0.0000
     26 H13         4.9058    0.4405   -1.1538 H         1 <0>         0.0000
     27 H14         4.0067    1.7761   -0.4307 H         1 <0>         0.0000
     28 H15         2.7913   -0.7431   -1.6902 H         1 <0>         0.0000
     29 H16         1.8464    0.5759   -0.9767 H         1 <0>         0.0000
     30 H17         3.5772    1.6335   -2.9515 H         1 <0>         0.0000
@<TRIPOS>BOND
     1    1    2 ar
     2    1    4 ar
     3    1   14 1
     4    2    5 ar
     5    2   15 1
     6    3    4 ar
     7    3   11 ar
     8    3   16 1
     9    4   13 1
    10    5   11 ar
    11    5   12 1
    12    6    9 1
    13    6   17 1
    14    6   18 1
    15    6   19 1
    16    7   13 1
    17    7   20 1
    18    7   21 1
    19    7   22 1
    20    8   13 1
    21    8   23 1
    22    8   24 1
    23    8   25 1
    24    9   10 1
    25    9   26 1
    26    9   27 1
    27   10   12 1
    28   10   28 1
    29   10   29 1
    30   12   30 1
