@<TRIPOS>MOLECULE
*****
   30    30     0     0     0
SMALL
NO_CHARGES

@<TRIPOS>ATOM
      1 C1         -1.8705   -2.9581    3.4671 C.ar      1 <0>         0.0000
      2 C2         -1.5210   -2.0561    1.2652 C.ar      1 <0>         0.0000
      3 C3         -2.2783   -1.6941    3.8616 C.ar      1 <0>         0.0000
      4 C4         -1.4862   -3.1342    2.1425 C.ar      1 <0>         0.0000
      5 C5         -1.9447   -0.8324    1.7581 C.ar      1 <0>         0.0000
      6 C6          0.5371   -6.1095    1.9419 C.3       1 <0>         0.0000
      7 C7         -2.9290    0.0087   -0.3626 C.3       1 <0>         0.0000
      8 C8         -0.5660    0.5938    0.2613 C.3       1 <0>         0.0000
      9 C9         -2.4716    1.6310    1.4464 C.3       1 <0>         0.0000
     10 C10        -0.4437   -5.2080    2.6608 C.3       1 <0>         0.0000
     11 N1         -2.3255   -0.6228    3.0383 N.ar      1 <0>         0.0000
     12 N2         -1.9788    0.3467    0.7827 N.4       1 <0>         0.0000
     13 O1         -1.0777   -4.3566    1.7070 O.3       1 <0>         0.0000
     14 H1         -1.8534   -3.7808    4.1735 H         1 <0>         0.0000
     15 H2         -1.2241   -2.1771    0.2281 H         1 <0>         0.0000
     16 H3         -2.5880   -1.5043    4.8840 H         1 <0>         0.0000
     17 H4          0.0251   -6.7330    1.2037 H         1 <0>         0.0000
     18 H5          1.3045   -5.5171    1.4330 H         1 <0>         0.0000
     19 H6          1.0568   -6.7595    2.6537 H         1 <0>         0.0000
     20 H7         -2.9417    0.8583   -1.0477 H         1 <0>         0.0000
     21 H8         -2.5510   -0.8885   -0.8566 H         1 <0>         0.0000
     22 H9         -3.9184   -0.1657    0.0646 H         1 <0>         0.0000
     23 H10        -0.6083    1.4361   -0.4316 H         1 <0>         0.0000
     24 H11         0.0713    0.8215    1.1179 H         1 <0>         0.0000
     25 H12        -0.2332   -0.3144   -0.2450 H         1 <0>         0.0000
     26 H13        -2.4674    2.4196    0.6918 H         1 <0>         0.0000
     27 H14        -3.4816    1.4487    1.8183 H         1 <0>         0.0000
     28 H15        -1.7887    1.8674    2.2647 H         1 <0>         0.0000
     29 H16         0.0747   -4.5872    3.3976 H         1 <0>         0.0000
     30 H17        -1.2102   -5.8015    3.1680 H         1 <0>         0.0000
@<TRIPOS>BOND
     1    1    3 ar
     2    1    4 ar
     3    1   14 1
     4    2    4 ar
     5    2    5 ar
     6    2   15 1
     7    3   11 ar
     8    3   16 1
     9    4   13 1
    10    5   11 ar
    11    5   12 1
    12    6   10 1
    13    6   17 1
    14    6   18 1
    15    6   19 1
    16    7   12 1
    17    7   20 1
    18    7   21 1
    19    7   22 1
    20    8   12 1
    21    8   23 1
    22    8   24 1
    23    8   25 1
    24    9   12 1
    25    9   26 1
    26    9   27 1
    27    9   28 1
    28   10   13 1
    29   10   29 1
    30   10   30 1
