@<TRIPOS>MOLECULE
*****
   13    13     0     0     0
SMALL
NO_CHARGES

@<TRIPOS>ATOM
      1 C1          1.3879   -0.0684    1.6522 C.ar      1 <0>         0.0000
      2 C2          1.6520   -0.6227    2.8997 C.ar      1 <0>         0.0000
      3 C3         -0.6317   -1.3224    1.5803 C.ar      1 <0>         0.0000
      4 C4          0.2265   -0.4197    0.9733 C.ar      1 <0>         0.0000
      5 C5          0.7299   -1.5161    3.4206 C.ar      1 <0>         0.0000
      6 N1         -0.4092   -1.8816    2.7908 N.ar      1 <0>         0.0000
      7 N2         -0.0695    0.1287   -0.2995 N.pl3     1 <0>         0.0000
      8 O1          0.7348    0.9439   -0.8155 O.3       1 <0>         0.0000
      9 O2         -1.1294   -0.2136   -0.8806 O.2       1 <0>         0.0000
     10 F1          0.9720   -2.0578    4.6244 F         1 <0>         0.0000
     11 H1          2.0950    0.6347    1.2196 H         1 <0>         0.0000
     12 H2          2.5509   -0.3636    3.4467 H         1 <0>         0.0000
     13 H3         -1.5542   -1.6373    1.1012 H         1 <0>         0.0000
@<TRIPOS>BOND
     1    1    2 ar
     2    1    4 ar
     3    1   11 1
     4    2    5 ar
     5    2   12 1
     6    3    4 ar
     7    3    6 ar
     8    3   13 1
     9    4    7 1
    10    5    6 ar
    11    5   10 1
    12    7    8 1
    13    7    9 2
