@<TRIPOS>MOLECULE
*****
   17    17     0     0     0
SMALL
NO_CHARGES

@<TRIPOS>ATOM
      1 C1          1.3879   -0.0684    1.6522 C.ar      1 <0>         0.0000
      2 C2          1.6520   -0.6227    2.8997 C.ar      1 <0>         0.0000
      3 C3         -0.6317   -1.3224    1.5803 C.ar      1 <0>         0.0000
      4 C4          0.2265   -0.4197    0.9733 C.ar      1 <0>         0.0000
      5 C5          0.7299   -1.5161    3.4206 C.ar      1 <0>         0.0000
      6 C6         -0.0094   -2.9850    5.1387 C.3       1 <0>         0.0000
      7 N1         -0.4092   -1.8816    2.7908 N.ar      1 <0>         0.0000
      8 N2         -0.0664    0.1236   -0.2881 N.pl3     1 <0>         0.0000
      9 O1          0.9679   -2.0744    4.6493 O.3       1 <0>         0.0000
     10 H1          2.0916    0.6374    1.2190 H         1 <0>         0.0000
     11 H2          2.5530   -0.3581    3.4423 H         1 <0>         0.0000
     12 H3         -1.5543   -1.6337    1.0995 H         1 <0>         0.0000
     13 H4          0.2965   -3.3565    6.1198 H         1 <0>         0.0000
     14 H5         -0.1156   -3.8177    4.4388 H         1 <0>         0.0000
     15 H6         -0.9657   -2.4646    5.2305 H         1 <0>         0.0000
     16 H7          0.5477    0.8102   -0.6848 H         1 <0>         0.0000
     17 H8         -0.9327   -0.1090   -0.7368 H         1 <0>         0.0000
@<TRIPOS>BOND
     1    1    2 ar
     2    1    4 ar
     3    1   10 1
     4    2    5 ar
     5    2   11 1
     6    3    4 ar
     7    3    7 ar
     8    3   12 1
     9    4    8 1
    10    5    7 ar
    11    5    9 1
    12    6    9 1
    13    6   13 1
    14    6   14 1
    15    6   15 1
    16    8   16 1
    17    8   17 1
