@<TRIPOS>MOLECULE
*****
   19    19     0     0     0
SMALL
NO_CHARGES

@<TRIPOS>ATOM
      1 C1          0.2265   -0.4197    0.9733 C.ar      1 <0>         0.0000
      2 C2          1.6520   -0.6227    2.8997 C.ar      1 <0>         0.0000
      3 C3         -0.6317   -1.3224    1.5803 C.ar      1 <0>         0.0000
      4 C4          1.3879   -0.0684    1.6522 C.ar      1 <0>         0.0000
      5 C5          0.7299   -1.5161    3.4206 C.ar      1 <0>         0.0000
      6 C6          3.4959    1.3140    1.6088 C.2       1 <0>         0.0000
      7 N1         -0.4092   -1.8816    2.7908 N.ar      1 <0>         0.0000
      8 N2          4.1099    2.2131    0.7472 N.am      1 <0>         0.0000
      9 N3          2.2820    0.8392    1.0843 N.am      1 <0>         0.0000
     10 N4          1.0487   -2.0558    4.7059 N.pl3     1 <0>         0.0000
     11 O1          2.1098   -1.6954    5.2595 O.3       1 <0>         0.0000
     12 O2          4.0009    1.0090    2.6861 O.2       1 <0>         0.0000
     13 O3          0.2542   -2.8680    5.2272 O.2       1 <0>         0.0000
     14 H1         -0.0103   -0.0065   -0.0015 H         1 <0>         0.0000
     15 H2          2.5547   -0.3562    3.4425 H         1 <0>         0.0000
     16 H3         -1.5511   -1.6289    1.0924 H         1 <0>         0.0000
     17 H4          4.9964    2.6268    1.0158 H         1 <0>         0.0000
     18 H5          3.6964    2.4677   -0.1434 H         1 <0>         0.0000
     19 H6          2.0349    1.2180    0.1638 H         1 <0>         0.0000
@<TRIPOS>BOND
     1    1    3 ar
     2    1    4 ar
     3    1   14 1
     4    2    4 ar
     5    2    5 ar
     6    2   15 1
     7    3    7 ar
     8    3   16 1
     9    4    9 1
    10    5    7 ar
    11    5   10 1
    12    6    8 am
    13    6    9 am
    14    6   12 2
    15    8   17 1
    16    8   18 1
    17    9   19 1
    18   10   11 1
    19   10   13 2
