@<TRIPOS>MOLECULE
*****
   21    21     0     0     0
SMALL
NO_CHARGES

@<TRIPOS>ATOM
      1 C1          1.8851   -1.0363   -0.1124 C.ar      1 <0>         0.0000
      2 C2          2.8783   -1.6520    2.0022 C.ar      1 <0>         0.0000
      3 C3          0.8066   -0.4630    0.5610 C.ar      1 <0>         0.0000
      4 C4          1.7997   -1.0786    2.6757 C.ar      1 <0>         0.0000
      5 C5          2.9210   -1.6309    0.6081 C.ar      1 <0>         0.0000
      6 C6          0.7638   -0.4841    1.9551 C.ar      1 <0>         0.0000
      7 C7          4.0653   -2.1938   -1.5211 C.3       1 <0>         0.0000
      8 C8          5.0996   -2.8185    0.6671 C.3       1 <0>         0.0000
      9 N1          4.0115   -2.2106   -0.0728 N.pl3     1 <0>         0.0000
     10 O1         -0.2887    0.0753    2.6122 O.3       1 <0>         0.0000
     11 H1          1.9083   -1.0142   -1.1990 H         1 <0>         0.0000
     12 H2          3.6801   -2.1126    2.5736 H         1 <0>         0.0000
     13 H3          0.0026   -0.0014   -0.0058 H         1 <0>         0.0000
     14 H4          1.7720   -1.0982    3.7618 H         1 <0>         0.0000
     15 H5          4.9774   -2.6857   -1.8689 H         1 <0>         0.0000
     16 H6          4.0595   -1.1636   -1.8876 H         1 <0>         0.0000
     17 H7          3.2015   -2.7188   -1.9376 H         1 <0>         0.0000
     18 H8          5.8496   -3.2126   -0.0236 H         1 <0>         0.0000
     19 H9          4.7246   -3.6389    1.2850 H         1 <0>         0.0000
     20 H10         5.5742   -2.0787    1.3174 H         1 <0>         0.0000
     21 H11        -0.1745   -0.0184    3.5714 H         1 <0>         0.0000
@<TRIPOS>BOND
     1    1    3 ar
     2    1    5 ar
     3    1   11 1
     4    2    4 ar
     5    2    5 ar
     6    2   12 1
     7    3    6 ar
     8    3   13 1
     9    4    6 ar
    10    4   14 1
    11    5    9 1
    12    6   10 1
    13    7    9 1
    14    7   15 1
    15    7   16 1
    16    7   17 1
    17    8    9 1
    18    8   18 1
    19    8   19 1
    20    8   20 1
    21   10   21 1
