@<TRIPOS>MOLECULE
*****
   23    24     0     0     0
SMALL
NO_CHARGES

@<TRIPOS>ATOM
      1 C1          1.8851   -1.0363   -0.1124 C.ar      1 <0>         0.0000
      2 C2          0.8066   -0.4630    0.5610 C.ar      1 <0>         0.0000
      3 C3          3.9691   -3.5520   -0.5212 C.ar      1 <0>         0.0000
      4 C4          5.1335   -1.4441   -0.4559 C.ar      1 <0>         0.0000
      5 C5          1.7997   -1.0786    2.6757 C.ar      1 <0>         0.0000
      6 C6          5.0368   -4.0852   -1.2292 C.ar      1 <0>         0.0000
      7 C7          6.1718   -2.0307   -1.1654 C.ar      1 <0>         0.0000
      8 C8          2.9210   -1.6309    0.6081 C.ar      1 <0>         0.0000
      9 C9          4.0223   -2.2168   -0.1326 C.ar      1 <0>         0.0000
     10 C10         0.7638   -0.4841    1.9551 C.ar      1 <0>         0.0000
     11 C11         2.8783   -1.6520    2.0022 C.ar      1 <0>         0.0000
     12 N1          6.0947   -3.3186   -1.5273 N.ar      1 <0>         0.0000
     13 O1         -0.2885    0.0753    2.6126 O.3       1 <0>         0.0000
     14 Cl1         4.1341   -2.3751    2.9466 Cl        1 <0>         0.0000
     15 H1          1.9009   -1.0131   -1.1996 H         1 <0>         0.0000
     16 H2          0.0011   -0.0040   -0.0056 H         1 <0>         0.0000
     17 H3          3.1143   -4.1782   -0.2831 H         1 <0>         0.0000
     18 H4          5.2022   -0.3999   -0.1654 H         1 <0>         0.0000
     19 H5          1.7564   -1.0903    3.7623 H         1 <0>         0.0000
     20 H6          5.0819   -5.1100   -1.5708 H         1 <0>         0.0000
     21 H7          7.0720   -1.5083   -1.4586 H         1 <0>         0.0000
     22 H8          6.8681   -3.7298   -2.0490 H         1 <0>         0.0000
     23 H9         -0.9229    0.4456    1.9784 H         1 <0>         0.0000
@<TRIPOS>BOND
     1    1    2 ar
     2    1    8 ar
     3    1   15 1
     4    2   10 ar
     5    2   16 1
     6    3    6 ar
     7    3    9 ar
     8    3   17 1
     9    4    7 ar
    10    4    9 ar
    11    4   18 1
    12    5   10 ar
    13    5   11 ar
    14    5   19 1
    15    6   12 ar
    16    6   20 1
    17    7   12 ar
    18    7   21 1
    19    8    9 1
    20    8   11 ar
    21   10   13 1
    22   11   14 1
    23   12   22 1
    24   13   23 1
