@<TRIPOS>MOLECULE
*****
   28    28     0     0     0
SMALL
NO_CHARGES

@<TRIPOS>ATOM
      1 C1         -0.8623   -1.0279    2.6087 C.ar      1 <0>         0.0000
      2 C2         -2.9892   -1.7407    1.8184 C.ar      1 <0>         0.0000
      3 C3         -1.9509   -2.9615    3.4646 C.ar      1 <0>         0.0000
      4 C4         -1.9447   -0.8324    1.7581 C.ar      1 <0>         0.0000
      5 C5         -0.8576   -2.1104    3.4813 C.ar      1 <0>         0.0000
      6 C6          1.2101   -3.1360    3.7980 C.2       1 <0>         0.0000
      7 C7         -0.7858    0.2364   -0.1623 C.3       1 <0>         0.0000
      8 C8         -1.9211    1.6462    1.5809 C.3       1 <0>         0.0000
      9 C9         -3.2530    0.3627   -0.0593 C.3       1 <0>         0.0000
     10 N1         -3.0203   -2.8040    2.6527 N.ar      1 <0>         0.0000
     11 N2          2.2292   -3.3105    4.7024 N.am      1 <0>         0.0000
     12 N3         -1.9788    0.3467    0.7827 N.4       1 <0>         0.0000
     13 O1          1.1954   -3.6262    2.6731 O.2       1 <0>         0.0000
     14 O2          0.1845   -2.3262    4.3216 O.3       1 <0>         0.0000
     15 H1         -0.0204   -0.3403    2.5925 H         1 <0>         0.0000
     16 H2         -3.8605   -1.6411    1.1782 H         1 <0>         0.0000
     17 H3         -1.9998   -3.8220    4.1244 H         1 <0>         0.0000
     18 H4         -0.8251    1.0832   -0.8500 H         1 <0>         0.0000
     19 H5          0.1229    0.2633    0.4421 H         1 <0>         0.0000
     20 H6         -0.8717   -0.7099   -0.6999 H         1 <0>         0.0000
     21 H7         -1.9463    2.4753    0.8714 H         1 <0>         0.0000
     22 H8         -2.7882    1.6700    2.2437 H         1 <0>         0.0000
     23 H9         -0.9905    1.6465    2.1518 H         1 <0>         0.0000
     24 H10        -3.2026    1.2265   -0.7248 H         1 <0>         0.0000
     25 H11        -3.2899   -0.5688   -0.6272 H         1 <0>         0.0000
     26 H12        -4.1025    0.4412    0.6218 H         1 <0>         0.0000
     27 H13         3.0448   -3.8704    4.4777 H         1 <0>         0.0000
     28 H14         2.1977   -2.8849    5.6226 H         1 <0>         0.0000
@<TRIPOS>BOND
     1    1    4 ar
     2    1    5 ar
     3    1   15 1
     4    2    4 ar
     5    2   10 ar
     6    2   16 1
     7    3    5 ar
     8    3   10 ar
     9    3   17 1
    10    4   12 1
    11    5   14 1
    12    6   11 am
    13    6   13 2
    14    6   14 1
    15    7   12 1
    16    7   18 1
    17    7   19 1
    18    7   20 1
    19    8   12 1
    20    8   21 1
    21    8   22 1
    22    8   23 1
    23    9   12 1
    24    9   24 1
    25    9   25 1
    26    9   26 1
    27   11   27 1
    28   11   28 1
