@<TRIPOS>MOLECULE
*****
   21    22     0     0     0
SMALL
NO_CHARGES

@<TRIPOS>ATOM
      1 C1          1.8851   -1.0363   -0.1124 C.ar      1 <0>         0.0000
      2 C2          0.8066   -0.4630    0.5610 C.ar      1 <0>         0.0000
      3 C3          4.3233   -3.5758    0.0631 C.ar      1 <0>         0.0000
      4 C4          4.8308   -1.4449   -0.9299 C.ar      1 <0>         0.0000
      5 C5          1.7997   -1.0786    2.6757 C.ar      1 <0>         0.0000
      6 C6          5.4041   -4.0957   -0.6308 C.ar      1 <0>         0.0000
      7 C7          5.8890   -2.0601   -1.5792 C.ar      1 <0>         0.0000
      8 C8          2.9210   -1.6309    0.6081 C.ar      1 <0>         0.0000
      9 C9          4.0379   -2.2241   -0.0949 C.ar      1 <0>         0.0000
     10 C10         0.7638   -0.4841    1.9551 C.ar      1 <0>         0.0000
     11 C11         2.8783   -1.6520    2.0022 C.ar      1 <0>         0.0000
     12 N1          6.1971   -3.3701   -1.4507 N.ar      1 <0>         0.0000
     13 O1         -0.2265    0.0429    2.5739 O.3       1 <0>         0.0000
     14 F1          3.8662   -2.2200    2.7093 F         1 <0>         0.0000
     15 H1          1.9040   -1.0129   -1.1996 H         1 <0>         0.0000
     16 H2          0.0106   -0.0065   -0.0255 H         1 <0>         0.0000
     17 H3          3.7265   -4.2150    0.7058 H         1 <0>         0.0000
     18 H4          4.6402   -0.3867   -1.0776 H         1 <0>         0.0000
     19 H5          1.7912   -1.1085    3.7641 H         1 <0>         0.0000
     20 H6          5.6678   -5.1443   -0.5425 H         1 <0>         0.0000
     21 H7          6.5387   -1.4956   -2.2401 H         1 <0>         0.0000
@<TRIPOS>BOND
     1    1    2 ar
     2    1    8 ar
     3    1   15 1
     4    2   10 ar
     5    2   16 1
     6    3    6 ar
     7    3    9 ar
     8    3   17 1
     9    4    7 ar
    10    4    9 ar
    11    4   18 1
    12    5   10 ar
    13    5   11 ar
    14    5   19 1
    15    6   12 ar
    16    6   20 1
    17    7   12 ar
    18    7   21 1
    19    8    9 1
    20    8   11 ar
    21   10   13 1
    22   11   14 1
