@<TRIPOS>MOLECULE
*****
   28    28     0     0     0
SMALL
NO_CHARGES

@<TRIPOS>ATOM
      1 C1          1.1641    0.3109   -5.9720 C.ar      1 <0>         0.0000
      2 C2         -0.1679    0.5760   -5.6539 C.ar      1 <0>         0.0000
      3 C3          2.1551    0.4559   -5.0011 C.ar      1 <0>         0.0000
      4 C4          0.4822    1.1312   -3.3942 C.ar      1 <0>         0.0000
      5 C5         -0.5088    0.9862   -4.3650 C.ar      1 <0>         0.0000
      6 C6          1.8142    0.8660   -3.7123 C.ar      1 <0>         0.0000
      7 C7          3.5580    1.9323    0.8763 C.3       1 <0>         0.0000
      8 C8         -2.3936    1.0665   -2.7320 C.3       1 <0>         0.0000
      9 C9          3.8214    1.5128   -0.5629 C.3       1 <0>         0.0000
     10 C10         2.5466    1.4251   -1.3935 C.3       1 <0>         0.0000
     11 N1         -1.8556    1.2546   -4.0438 N.pl3     1 <0>         0.0000
     12 N2          2.8015    1.0088   -2.7448 N.pl3     1 <0>         0.0000
     13 H1          1.4298   -0.0085   -6.9756 H         1 <0>         0.0000
     14 H2         -0.9318    0.4598   -6.4186 H         1 <0>         0.0000
     15 H3          3.1900    0.2458   -5.2593 H         1 <0>         0.0000
     16 H4          0.2169    1.4514   -2.3890 H         1 <0>         0.0000
     17 H5          3.0701    2.9114    0.9164 H         1 <0>         0.0000
     18 H6          2.9007    1.2064    1.3658 H         1 <0>         0.0000
     19 H7          4.4867    1.9858    1.4527 H         1 <0>         0.0000
     20 H8         -1.6169    0.6986   -2.0566 H         1 <0>         0.0000
     21 H9         -3.2099    0.3396   -2.7589 H         1 <0>         0.0000
     22 H10        -2.7795    2.0125   -2.3426 H         1 <0>         0.0000
     23 H11         4.3089    0.5310   -0.5580 H         1 <0>         0.0000
     24 H12         4.5218    2.2206   -1.0219 H         1 <0>         0.0000
     25 H13         1.8642    0.6900   -0.9556 H         1 <0>         0.0000
     26 H14         2.0300    2.3893   -1.4316 H         1 <0>         0.0000
     27 H15        -2.4415    1.5899   -4.7850 H         1 <0>         0.0000
     28 H16         3.7606    0.8058   -3.0164 H         1 <0>         0.0000
@<TRIPOS>BOND
     1    1    2 ar
     2    1    3 ar
     3    1   13 1
     4    2    5 ar
     5    2   14 1
     6    3    6 ar
     7    3   15 1
     8    4    5 ar
     9    4    6 ar
    10    4   16 1
    11    5   11 1
    12    6   12 1
    13    7    9 1
    14    7   17 1
    15    7   18 1
    16    7   19 1
    17    8   11 1
    18    8   20 1
    19    8   21 1
    20    8   22 1
    21    9   10 1
    22    9   23 1
    23    9   24 1
    24   10   12 1
    25   10   25 1
    26   10   26 1
    27   11   27 1
    28   12   28 1
