@<TRIPOS>MOLECULE
*****
   21    22     0     0     0
SMALL
NO_CHARGES

@<TRIPOS>ATOM
      1 C1          1.8851   -1.0363   -0.1124 C.ar      1 <0>         0.0000
      2 C2          0.8066   -0.4630    0.5610 C.ar      1 <0>         0.0000
      3 C3          2.9210   -1.6309    0.6081 C.ar      1 <0>         0.0000
      4 C4          0.7638   -0.4841    1.9551 C.ar      1 <0>         0.0000
      5 C5          3.9236   -3.6353    3.0201 C.ar      1 <0>         0.0000
      6 C6          5.0859   -1.5308    3.0866 C.ar      1 <0>         0.0000
      7 C7          4.9972   -4.1881    3.6996 C.ar      1 <0>         0.0000
      8 C8          6.1073   -2.1777    3.7633 C.ar      1 <0>         0.0000
      9 C9          2.8783   -1.6520    2.0022 C.ar      1 <0>         0.0000
     10 C10         3.9767   -2.2806    2.7115 C.ar      1 <0>         0.0000
     11 C11         1.7997   -1.0786    2.6757 C.ar      1 <0>         0.0000
     12 N1          6.0915   -3.4917    4.0806 N.ar      1 <0>         0.0000
     13 Cl1         1.6942   -1.0758    4.4021 Cl        1 <0>         0.0000
     14 H1          1.9182   -1.0197   -1.1979 H         1 <0>         0.0000
     15 H2          0.0001   -0.0002   -0.0003 H         1 <0>         0.0000
     16 H3          3.7540   -2.0730    0.0664 H         1 <0>         0.0000
     17 H4         -0.0842   -0.0327    2.4638 H         1 <0>         0.0000
     18 H5          3.0747   -4.2522    2.7431 H         1 <0>         0.0000
     19 H6          5.1631   -0.4712    2.8646 H         1 <0>         0.0000
     20 H7          5.0050   -5.2405    3.9629 H         1 <0>         0.0000
     21 H8          6.9934   -1.6369    4.0795 H         1 <0>         0.0000
@<TRIPOS>BOND
     1    1    2 ar
     2    1    3 ar
     3    1   14 1
     4    2    4 ar
     5    2   15 1
     6    3    9 ar
     7    3   16 1
     8    4   11 ar
     9    4   17 1
    10    5    7 ar
    11    5   10 ar
    12    5   18 1
    13    6    8 ar
    14    6   10 ar
    15    6   19 1
    16    7   12 ar
    17    7   20 1
    18    8   12 ar
    19    8   21 1
    20    9   10 1
    21    9   11 ar
    22   11   13 1
