@<TRIPOS>MOLECULE
*****
   28    28     0     0     0
SMALL
NO_CHARGES

@<TRIPOS>ATOM
      1 C1          1.8851   -1.0363   -0.1124 C.ar      1 <0>         0.0000
      2 C2          2.8783   -1.6520    2.0022 C.ar      1 <0>         0.0000
      3 C3          0.8066   -0.4630    0.5610 C.ar      1 <0>         0.0000
      4 C4          1.7997   -1.0786    2.6757 C.ar      1 <0>         0.0000
      5 C5          2.9210   -1.6309    0.6081 C.ar      1 <0>         0.0000
      6 C6          0.7638   -0.4841    1.9551 C.ar      1 <0>         0.0000
      7 C7          5.3830   -2.8785   -1.9385 C.3       1 <0>         0.0000
      8 C8         -1.4079    0.7160    1.8975 C.3       1 <0>         0.0000
      9 C9         -0.3865    0.0662    4.0844 C.3       1 <0>         0.0000
     10 C10         4.1163   -2.2263   -1.4995 C.3       1 <0>         0.0000
     11 N1          4.0107   -2.2119   -0.0734 N.pl3     1 <0>         0.0000
     12 N2         -0.3263    0.0955    2.6364 N.pl3     1 <0>         0.0000
     13 H1          1.9088   -1.0131   -1.1990 H         1 <0>         0.0000
     14 H2          3.6806   -2.1119    2.5736 H         1 <0>         0.0000
     15 H3          0.0050   -0.0022   -0.0106 H         1 <0>         0.0000
     16 H4          1.7765   -1.1000    3.7622 H         1 <0>         0.0000
     17 H5          6.2545   -2.3420   -1.5480 H         1 <0>         0.0000
     18 H6          5.4213   -3.9211   -1.6045 H         1 <0>         0.0000
     19 H7          5.4445   -2.8711   -3.0334 H         1 <0>         0.0000
     20 H8         -2.1586    1.1081    2.5885 H         1 <0>         0.0000
     21 H9         -1.8839   -0.0154    1.2387 H         1 <0>         0.0000
     22 H10        -1.0259    1.5398    1.2885 H         1 <0>         0.0000
     23 H11        -1.2973    0.5601    4.4327 H         1 <0>         0.0000
     24 H12         0.4784    0.5829    4.5092 H         1 <0>         0.0000
     25 H13        -0.3878   -0.9671    4.4418 H         1 <0>         0.0000
     26 H14         3.2503   -2.7670   -1.8930 H         1 <0>         0.0000
     27 H15         4.0726   -1.1901   -1.8474 H         1 <0>         0.0000
     28 H16         4.7289   -2.6276    0.4891 H         1 <0>         0.0000
@<TRIPOS>BOND
     1    1    3 ar
     2    1    5 ar
     3    1   13 1
     4    2    4 ar
     5    2    5 ar
     6    2   14 1
     7    3    6 ar
     8    3   15 1
     9    4    6 ar
    10    4   16 1
    11    5   11 1
    12    6   12 1
    13    7   10 1
    14    7   17 1
    15    7   18 1
    16    7   19 1
    17    8   12 1
    18    8   20 1
    19    8   21 1
    20    8   22 1
    21    9   12 1
    22    9   23 1
    23    9   24 1
    24    9   25 1
    25   10   11 1
    26   10   26 1
    27   10   27 1
    28   11   28 1
