@<TRIPOS>MOLECULE
*****
   22    23     0     0     0
SMALL
NO_CHARGES

@<TRIPOS>ATOM
      1 C1          1.8851   -1.0363   -0.1124 C.ar      1 <0>         0.0000
      2 C2          0.8066   -0.4630    0.5610 C.ar      1 <0>         0.0000
      3 C3          3.9707   -3.5501   -0.5229 C.ar      1 <0>         0.0000
      4 C4          5.1338   -1.4416   -0.4550 C.ar      1 <0>         0.0000
      5 C5          1.7997   -1.0786    2.6757 C.ar      1 <0>         0.0000
      6 C6          5.0390   -4.0819   -1.2310 C.ar      1 <0>         0.0000
      7 C7          6.1727   -2.0267   -1.1648 C.ar      1 <0>         0.0000
      8 C8          2.9210   -1.6309    0.6081 C.ar      1 <0>         0.0000
      9 C9          4.0229   -2.2153   -0.1329 C.ar      1 <0>         0.0000
     10 C10         0.7638   -0.4841    1.9551 C.ar      1 <0>         0.0000
     11 C11         2.8783   -1.6520    2.0022 C.ar      1 <0>         0.0000
     12 N1          6.0965   -3.3143   -1.5280 N.ar      1 <0>         0.0000
     13 O1         -0.2269    0.0432    2.5731 O.3       1 <0>         0.0000
     14 Cl1         4.1351   -2.3757    2.9454 Cl        1 <0>         0.0000
     15 H1          1.9026   -1.0108   -1.1996 H         1 <0>         0.0000
     16 H2          0.0112   -0.0051   -0.0249 H         1 <0>         0.0000
     17 H3          3.1163   -4.1772   -0.2857 H         1 <0>         0.0000
     18 H4          5.2017   -0.3976   -0.1634 H         1 <0>         0.0000
     19 H5          1.7746   -1.0997    3.7652 H         1 <0>         0.0000
     20 H6          5.0849   -5.1064   -1.5737 H         1 <0>         0.0000
     21 H7          7.0726   -1.5034   -1.4571 H         1 <0>         0.0000
     22 H8          6.8703   -3.7245   -2.0499 H         1 <0>         0.0000
@<TRIPOS>BOND
     1    1    2 ar
     2    1    8 ar
     3    1   15 1
     4    2   10 ar
     5    2   16 1
     6    3    6 ar
     7    3    9 ar
     8    3   17 1
     9    4    7 ar
    10    4    9 ar
    11    4   18 1
    12    5   10 ar
    13    5   11 ar
    14    5   19 1
    15    6   12 ar
    16    6   20 1
    17    7   12 ar
    18    7   21 1
    19    8    9 1
    20    8   11 ar
    21   10   13 1
    22   11   14 1
    23   12   22 1
