@<TRIPOS>MOLECULE
*****
   30    30     0     0     0
SMALL
NO_CHARGES

@<TRIPOS>ATOM
      1 C1         -1.4854   -3.1338    2.1440 C.ar      1 <0>         0.0000
      2 C2         -1.5204   -2.0562    1.2660 C.ar      1 <0>         0.0000
      3 C3         -2.2784   -1.6929    3.8620 C.ar      1 <0>         0.0000
      4 C4         -1.8701   -2.9571    3.4684 C.ar      1 <0>         0.0000
      5 C5         -1.9447   -0.8324    1.7581 C.ar      1 <0>         0.0000
      6 C6         -2.1984   -4.0091    5.7289 C.2       1 <0>         0.0000
      7 C7         -2.0318   -5.3686    6.3602 C.3       1 <0>         0.0000
      8 C8         -2.9284    0.0083   -0.3630 C.3       1 <0>         0.0000
      9 C9         -0.5658    0.5942    0.2619 C.3       1 <0>         0.0000
     10 C10        -2.4722    1.6308    1.4462 C.3       1 <0>         0.0000
     11 N1         -2.3258   -0.6222    3.0381 N.ar      1 <0>         0.0000
     12 N2         -1.8460   -4.0176    4.3712 N.am      1 <0>         0.0000
     13 N3         -1.9788    0.3467    0.7827 N.4       1 <0>         0.0000
     14 O1         -2.6027   -3.0562    6.3872 O.2       1 <0>         0.0000
     15 H1         -1.1565   -4.1062    1.7872 H         1 <0>         0.0000
     16 H2         -1.2225   -2.1834    0.2307 H         1 <0>         0.0000
     17 H3         -2.5897   -1.4930    4.8830 H         1 <0>         0.0000
     18 H4         -1.0208   -5.4671    6.7655 H         1 <0>         0.0000
     19 H5         -2.1898   -6.1475    5.6088 H         1 <0>         0.0000
     20 H6         -2.7628   -5.4993    7.1635 H         1 <0>         0.0000
     21 H7         -2.9411    0.8580   -1.0481 H         1 <0>         0.0000
     22 H8         -2.5499   -0.8887   -0.8568 H         1 <0>         0.0000
     23 H9         -3.9179   -0.1664    0.0638 H         1 <0>         0.0000
     24 H10        -0.6081    1.4366   -0.4310 H         1 <0>         0.0000
     25 H11         0.0710    0.8222    1.1187 H         1 <0>         0.0000
     26 H12        -0.2325   -0.3138   -0.2443 H         1 <0>         0.0000
     27 H13        -2.4681    2.4195    0.6916 H         1 <0>         0.0000
     28 H14        -3.4824    1.4482    1.8177 H         1 <0>         0.0000
     29 H15        -1.7898    1.8674    2.2648 H         1 <0>         0.0000
     30 H16        -1.5323   -4.9246    4.0042 H         1 <0>         0.0000
@<TRIPOS>BOND
     1    1    2 ar
     2    1    4 ar
     3    1   15 1
     4    2    5 ar
     5    2   16 1
     6    3    4 ar
     7    3   11 ar
     8    3   17 1
     9    4   12 1
    10    5   11 ar
    11    5   13 1
    12    6    7 1
    13    6   12 am
    14    6   14 2
    15    7   18 1
    16    7   19 1
    17    7   20 1
    18    8   13 1
    19    8   21 1
    20    8   22 1
    21    8   23 1
    22    9   13 1
    23    9   24 1
    24    9   25 1
    25    9   26 1
    26   10   13 1
    27   10   27 1
    28   10   28 1
    29   10   29 1
    30   12   30 1
