@<TRIPOS>MOLECULE
*****
   15    15     0     0     0
SMALL
NO_CHARGES

@<TRIPOS>ATOM
      1 C1          1.8851   -1.0363   -0.1124 C.ar      1 <0>         0.0000
      2 C2          2.8783   -1.6520    2.0022 C.ar      1 <0>         0.0000
      3 C3          0.8066   -0.4630    0.5610 C.ar      1 <0>         0.0000
      4 C4          1.7997   -1.0786    2.6757 C.ar      1 <0>         0.0000
      5 C5          2.9210   -1.6309    0.6081 C.ar      1 <0>         0.0000
      6 C6          0.7638   -0.4841    1.9551 C.ar      1 <0>         0.0000
      7 N1          4.0190   -2.2148   -0.0772 N.pl3     1 <0>         0.0000
      8 O1          4.0383   -2.1853   -1.3315 O.3       1 <0>         0.0000
      9 O2          4.9401   -2.7447    0.5903 O.2       1 <0>         0.0000
     10 O3         -0.2886    0.0754    2.6122 O.3       1 <0>         0.0000
     11 H1          1.9063   -1.0127   -1.1992 H         1 <0>         0.0000
     12 H2          3.6786   -2.1125    2.5763 H         1 <0>         0.0000
     13 H3          0.0028   -0.0010   -0.0058 H         1 <0>         0.0000
     14 H4          1.7719   -1.0986    3.7617 H         1 <0>         0.0000
     15 H5         -0.1745   -0.0183    3.5714 H         1 <0>         0.0000
@<TRIPOS>BOND
     1    1    3 ar
     2    1    5 ar
     3    1   11 1
     4    2    4 ar
     5    2    5 ar
     6    2   12 1
     7    3    6 ar
     8    3   13 1
     9    4    6 ar
    10    4   14 1
    11    5    7 1
    12    6   10 1
    13    7    8 1
    14    7    9 2
    15   10   15 1
