@<TRIPOS>MOLECULE
*****
   25    25     0     0     0
SMALL
NO_CHARGES

@<TRIPOS>ATOM
      1 C1         -0.7160   -2.2655    3.2659 C.ar      1 <0>         0.0000
      2 C2         -0.7470   -1.1915    2.3765 C.ar      1 <0>         0.0000
      3 C3         -1.8826   -2.9806    3.5369 C.ar      1 <0>         0.0000
      4 C4         -3.1113   -1.5474    2.0291 C.ar      1 <0>         0.0000
      5 C5         -1.9447   -0.8324    1.7581 C.ar      1 <0>         0.0000
      6 C6         -3.0803   -2.6215    2.9185 C.ar      1 <0>         0.0000
      7 C7         -1.0264    0.0549   -0.3733 C.3       1 <0>         0.0000
      8 C8         -1.5589    1.6115    1.5264 C.3       1 <0>         0.0000
      9 C9         -3.3733    0.5769    0.2038 C.3       1 <0>         0.0000
     10 N1         -1.9788    0.3467    0.7827 N.4       1 <0>         0.0000
     11 O1         -4.2184   -3.3194    3.1825 O.3       1 <0>         0.0000
     12 H1          0.2163   -2.5450    3.7477 H         1 <0>         0.0000
     13 H2          0.1669   -0.6403    2.1718 H         1 <0>         0.0000
     14 H3         -1.8521   -3.8166    4.2304 H         1 <0>         0.0000
     15 H4         -4.0473   -1.2706    1.5495 H         1 <0>         0.0000
     16 H5         -1.0627    0.9040   -1.0583 H         1 <0>         0.0000
     17 H6         -0.0250   -0.0715    0.0426 H         1 <0>         0.0000
     18 H7         -1.3661   -0.8595   -0.8634 H         1 <0>         0.0000
     19 H8         -1.5887    2.4411    0.8175 H         1 <0>         0.0000
     20 H9         -2.2648    1.7683    2.3441 H         1 <0>         0.0000
     21 H10        -0.5471    1.4557    1.9056 H         1 <0>         0.0000
     22 H11        -3.3158    1.4280   -0.4772 H         1 <0>         0.0000
     23 H12        -3.6692   -0.3306   -0.3259 H         1 <0>         0.0000
     24 H13        -4.0500    0.7846    1.0350 H         1 <0>         0.0000
     25 H14        -4.0369   -4.0321    3.8158 H         1 <0>         0.0000
@<TRIPOS>BOND
     1    1    2 ar
     2    1    3 ar
     3    1   12 1
     4    2    5 ar
     5    2   13 1
     6    3    6 ar
     7    3   14 1
     8    4    5 ar
     9    4    6 ar
    10    4   15 1
    11    5   10 1
    12    6   11 1
    13    7   10 1
    14    7   16 1
    15    7   17 1
    16    7   18 1
    17    8   10 1
    18    8   19 1
    19    8   20 1
    20    8   21 1
    21    9   10 1
    22    9   22 1
    23    9   23 1
    24    9   24 1
    25   11   25 1
