@<TRIPOS>MOLECULE
*****
   21    22     0     0     0
SMALL
NO_CHARGES

@<TRIPOS>ATOM
      1 C1          1.8851   -1.0363   -0.1124 C.ar      1 <0>         0.0000
      2 C2          0.8066   -0.4630    0.5610 C.ar      1 <0>         0.0000
      3 C3          3.9727   -3.5493   -0.5215 C.ar      1 <0>         0.0000
      4 C4          5.1339   -1.4442   -0.4559 C.ar      1 <0>         0.0000
      5 C5          1.7997   -1.0786    2.6757 C.ar      1 <0>         0.0000
      6 C6          5.0507   -4.0605   -1.2261 C.ar      1 <0>         0.0000
      7 C7          6.1601   -2.0496   -1.1633 C.ar      1 <0>         0.0000
      8 C8          2.9210   -1.6309    0.6081 C.ar      1 <0>         0.0000
      9 C9          4.0229   -2.2153   -0.1329 C.ar      1 <0>         0.0000
     10 C10         0.7638   -0.4841    1.9551 C.ar      1 <0>         0.0000
     11 C11         2.8783   -1.6520    2.0022 C.ar      1 <0>         0.0000
     12 N1          6.1470   -3.3425   -1.5581 N.ar      1 <0>         0.0000
     13 O1         -0.2269    0.0432    2.5731 O.3       1 <0>         0.0000
     14 Cl1         4.1351   -2.3757    2.9454 Cl        1 <0>         0.0000
     15 H1          1.9026   -1.0108   -1.1996 H         1 <0>         0.0000
     16 H2          0.0112   -0.0051   -0.0249 H         1 <0>         0.0000
     17 H3          3.1220   -4.1815   -0.2877 H         1 <0>         0.0000
     18 H4          5.2101   -0.4003   -0.1691 H         1 <0>         0.0000
     19 H5          1.7746   -1.0997    3.7652 H         1 <0>         0.0000
     20 H6          5.0598   -5.0949   -1.5531 H         1 <0>         0.0000
     21 H7          7.0494   -1.4918   -1.4382 H         1 <0>         0.0000
@<TRIPOS>BOND
     1    1    2 ar
     2    1    8 ar
     3    1   15 1
     4    2   10 ar
     5    2   16 1
     6    3    6 ar
     7    3    9 ar
     8    3   17 1
     9    4    7 ar
    10    4    9 ar
    11    4   18 1
    12    5   10 ar
    13    5   11 ar
    14    5   19 1
    15    6   12 ar
    16    6   20 1
    17    7   12 ar
    18    7   21 1
    19    8    9 1
    20    8   11 ar
    21   10   13 1
    22   11   14 1
