@<TRIPOS>MOLECULE
*****
   22    22     0     0     0
SMALL
NO_CHARGES

@<TRIPOS>ATOM
      1 C1          2.8783   -1.6520    2.0022 C.ar      1 <0>         0.0000
      2 C2          1.7997   -1.0786    2.6757 C.ar      1 <0>         0.0000
      3 C3          1.8851   -1.0363   -0.1124 C.ar      1 <0>         0.0000
      4 C4          0.8066   -0.4630    0.5610 C.ar      1 <0>         0.0000
      5 C5          2.9210   -1.6309    0.6081 C.ar      1 <0>         0.0000
      6 C6          0.7638   -0.4841    1.9551 C.ar      1 <0>         0.0000
      7 C7          4.7496   -3.3207    0.4461 C.3       1 <0>         0.0000
      8 C8         -1.6443    0.1561    2.0841 C.3       1 <0>         0.0000
      9 N1          4.0107   -2.2119   -0.0734 N.pl3     1 <0>         0.0000
     10 N2         -0.3263    0.0955    2.6364 N.pl3     1 <0>         0.0000
     11 H1          3.6806   -2.1119    2.5736 H         1 <0>         0.0000
     12 H2          1.7765   -1.1000    3.7622 H         1 <0>         0.0000
     13 H3          1.9088   -1.0131   -1.1990 H         1 <0>         0.0000
     14 H4          0.0050   -0.0022   -0.0106 H         1 <0>         0.0000
     15 H5          4.3413   -3.6241    1.4136 H         1 <0>         0.0000
     16 H6          5.7999   -3.0467    0.5776 H         1 <0>         0.0000
     17 H7          4.6921   -4.1687   -0.2416 H         1 <0>         0.0000
     18 H8         -1.6577   -0.3037    1.0925 H         1 <0>         0.0000
     19 H9         -1.9689    1.1963    1.9940 H         1 <0>         0.0000
     20 H10        -2.3490   -0.3763    2.7285 H         1 <0>         0.0000
     21 H11         4.2591   -1.8112   -0.9581 H         1 <0>         0.0000
     22 H12        -0.1436    0.4761    3.5458 H         1 <0>         0.0000
@<TRIPOS>BOND
     1    1    2 ar
     2    1    5 ar
     3    1   11 1
     4    2    6 ar
     5    2   12 1
     6    3    4 ar
     7    3    5 ar
     8    3   13 1
     9    4    6 ar
    10    4   14 1
    11    5    9 1
    12    6   10 1
    13    7    9 1
    14    7   15 1
    15    7   16 1
    16    7   17 1
    17    8   10 1
    18    8   18 1
    19    8   19 1
    20    8   20 1
    21    9   21 1
    22   10   22 1
