@<TRIPOS>MOLECULE
*****
   21    21     0     0     0
SMALL
NO_CHARGES

@<TRIPOS>ATOM
      1 C1          1.3879   -0.0684    1.6522 C.ar      1 <0>         0.0000
      2 C2          1.6520   -0.6227    2.8997 C.ar      1 <0>         0.0000
      3 C3         -0.6317   -1.3224    1.5803 C.ar      1 <0>         0.0000
      4 C4          0.2265   -0.4197    0.9733 C.ar      1 <0>         0.0000
      5 C5          0.7299   -1.5161    3.4206 C.ar      1 <0>         0.0000
      6 C6         -1.3077    0.5398   -2.3149 C.3       1 <0>         0.0000
      7 C7         -1.2503   -0.2085   -1.0267 C.3       1 <0>         0.0000
      8 N1         -0.4092   -1.8816    2.7908 N.ar      1 <0>         0.0000
      9 N2          1.0143   -2.0733    4.6924 N.pl3     1 <0>         0.0000
     10 N3         -0.0670    0.1225   -0.2885 N.pl3     1 <0>         0.0000
     11 H1          2.0928    0.6358    1.2183 H         1 <0>         0.0000
     12 H2          2.5562   -0.3546    3.4362 H         1 <0>         0.0000
     13 H3         -1.5538   -1.6352    1.0996 H         1 <0>         0.0000
     14 H4         -1.3197    1.6208   -2.1386 H         1 <0>         0.0000
     15 H5         -0.4526    0.2872   -2.9513 H         1 <0>         0.0000
     16 H6         -2.2234    0.2757   -2.8573 H         1 <0>         0.0000
     17 H7         -1.2386   -1.2871   -1.2100 H         1 <0>         0.0000
     18 H8         -2.1131    0.0329   -0.3990 H         1 <0>         0.0000
     19 H9          1.8761   -1.8427    5.1367 H         1 <0>         0.0000
     20 H10         0.3916   -2.7541    5.0691 H         1 <0>         0.0000
     21 H11         0.5963    0.7705   -0.6768 H         1 <0>         0.0000
@<TRIPOS>BOND
     1    1    2 ar
     2    1    4 ar
     3    1   11 1
     4    2    5 ar
     5    2   12 1
     6    3    4 ar
     7    3    8 ar
     8    3   13 1
     9    4   10 1
    10    5    8 ar
    11    5    9 1
    12    6    7 1
    13    6   14 1
    14    6   15 1
    15    6   16 1
    16    7   10 1
    17    7   17 1
    18    7   18 1
    19    9   19 1
    20    9   20 1
    21   10   21 1
