@<TRIPOS>MOLECULE
*****
   23    23     0     0     0
SMALL
NO_CHARGES

@<TRIPOS>ATOM
      1 C1         -3.5735   -2.9654   -5.1582 C.ar      1 <0>         0.0000
      2 C2         -3.2936   -4.4482   -3.2853 C.ar      1 <0>         0.0000
      3 C3         -4.3442   -3.9507   -5.7540 C.ar      1 <0>         0.0000
      4 C4         -3.0418   -3.2268   -3.9003 C.ar      1 <0>         0.0000
      5 C5         -4.0770   -5.3670   -3.9649 C.ar      1 <0>         0.0000
      6 C6         -1.6457   -2.3464   -1.9982 C.2       1 <0>         0.0000
      7 C7         -0.2327   -1.1055   -0.3043 C.3       1 <0>         0.0000
      8 C8         -0.8853   -1.0690   -1.6746 C.3       1 <0>         0.0000
      9 N1         -4.6106   -5.1490   -5.1877 N.ar      1 <0>         0.0000
     10 N2         -2.2508   -2.2512   -3.2482 N.am      1 <0>         0.0000
     11 N3         -4.3060   -6.6057   -3.2882 N.pl3     1 <0>         0.0000
     12 O1         -3.7977   -6.7730   -2.1585 O.3       1 <0>         0.0000
     13 O2         -1.6825   -3.2958   -1.2224 O.2       1 <0>         0.0000
     14 O3         -5.0056   -7.4748   -3.8521 O.2       1 <0>         0.0000
     15 H1         -3.3967   -2.0234   -5.6664 H         1 <0>         0.0000
     16 H2         -2.8861   -4.6656   -2.3018 H         1 <0>         0.0000
     17 H3         -4.7820   -3.7962   -6.7347 H         1 <0>         0.0000
     18 H4         -0.9790   -1.2552    0.4829 H         1 <0>         0.0000
     19 H5          0.2896   -0.1646   -0.1058 H         1 <0>         0.0000
     20 H6          0.4945   -1.9213   -0.2368 H         1 <0>         0.0000
     21 H7         -0.1168   -0.9183   -2.4414 H         1 <0>         0.0000
     22 H8         -1.5844   -0.2263   -1.7242 H         1 <0>         0.0000
     23 H9         -2.1165   -1.3842   -3.7643 H         1 <0>         0.0000
@<TRIPOS>BOND
     1    1    3 ar
     2    1    4 ar
     3    1   15 1
     4    2    4 ar
     5    2    5 ar
     6    2   16 1
     7    3    9 ar
     8    3   17 1
     9    4   10 1
    10    5    9 ar
    11    5   11 1
    12    6    8 1
    13    6   10 am
    14    6   13 2
    15    7    8 1
    16    7   18 1
    17    7   19 1
    18    7   20 1
    19    8   21 1
    20    8   22 1
    21   10   23 1
    22   11   12 1
    23   11   14 2
