@<TRIPOS>MOLECULE
*****
   31    31     0     0     0
SMALL
NO_CHARGES

@<TRIPOS>ATOM
      1 C1         -3.1367   -1.4019    2.2058 C.ar      1 <0>         0.0000
      2 C2         -0.7216   -1.3371    2.1998 C.ar      1 <0>         0.0000
      3 C3         -3.1058   -2.4761    3.0949 C.ar      1 <0>         0.0000
      4 C4         -0.6906   -2.4113    3.0891 C.ar      1 <0>         0.0000
      5 C5         -1.9447   -0.8324    1.7581 C.ar      1 <0>         0.0000
      6 C6         -1.8827   -2.9808    3.5366 C.ar      1 <0>         0.0000
      7 C7         -2.4639   -4.8236    6.5787 C.3       1 <0>         0.0000
      8 C8         -2.7308    1.5026    1.4363 C.3       1 <0>         0.0000
      9 C9         -2.6752   -0.0976   -0.5006 C.3       1 <0>         0.0000
     10 C10        -0.5784    0.8355    0.4184 C.3       1 <0>         0.0000
     11 C11        -2.9476   -4.1545    5.3098 C.3       1 <0>         0.0000
     12 N1         -1.9788    0.3467    0.7827 N.4       1 <0>         0.0000
     13 O1         -1.8524   -4.0292    4.4039 O.3       1 <0>         0.0000
     14 H1         -4.0947   -1.0147    1.8686 H         1 <0>         0.0000
     15 H2          0.2126   -0.9007    1.8561 H         1 <0>         0.0000
     16 H3         -4.0377   -2.9151    3.4406 H         1 <0>         0.0000
     17 H4          0.2650   -2.8012    3.4288 H         1 <0>         0.0000
     18 H5         -2.0697   -5.8215    6.3677 H         1 <0>         0.0000
     19 H6         -1.6790   -4.2267    7.0547 H         1 <0>         0.0000
     20 H7         -3.2801   -4.9121    7.3034 H         1 <0>         0.0000
     21 H8         -2.7459    2.3336    0.7288 H         1 <0>         0.0000
     22 H9         -3.7425    1.1590    1.6602 H         1 <0>         0.0000
     23 H10        -2.1975    1.7743    2.3494 H         1 <0>         0.0000
     24 H11        -2.6909    0.7535   -1.1838 H         1 <0>         0.0000
     25 H12        -2.1040   -0.9278   -0.9205 H         1 <0>         0.0000
     26 H13        -3.6882   -0.4103   -0.2399 H         1 <0>         0.0000
     27 H14        -0.6864    1.6712   -0.2753 H         1 <0>         0.0000
     28 H15        -0.0846    1.1510    1.3394 H         1 <0>         0.0000
     29 H16        -0.0455    0.0047   -0.0480 H         1 <0>         0.0000
     30 H17        -3.3406   -3.1570    5.5278 H         1 <0>         0.0000
     31 H18        -3.7312   -4.7525    4.8351 H         1 <0>         0.0000
@<TRIPOS>BOND
     1    1    3 ar
     2    1    5 ar
     3    1   14 1
     4    2    4 ar
     5    2    5 ar
     6    2   15 1
     7    3    6 ar
     8    3   16 1
     9    4    6 ar
    10    4   17 1
    11    5   12 1
    12    6   13 1
    13    7   11 1
    14    7   18 1
    15    7   19 1
    16    7   20 1
    17    8   12 1
    18    8   21 1
    19    8   22 1
    20    8   23 1
    21    9   12 1
    22    9   24 1
    23    9   25 1
    24    9   26 1
    25   10   12 1
    26   10   27 1
    27   10   28 1
    28   10   29 1
    29   11   13 1
    30   11   30 1
    31   11   31 1
