@<TRIPOS>MOLECULE
*****
   32    32     0     0     0
SMALL
NO_CHARGES

@<TRIPOS>ATOM
      1 C1         -1.8722   -2.9566    3.4692 C.ar      1 <0>         0.0000
      2 C2         -1.5169   -2.0556    1.2677 C.ar      1 <0>         0.0000
      3 C3         -2.2838   -1.6930    3.8611 C.ar      1 <0>         0.0000
      4 C4         -1.4830   -3.1330    2.1460 C.ar      1 <0>         0.0000
      5 C5         -1.9447   -0.8324    1.7581 C.ar      1 <0>         0.0000
      6 C6         -1.0429   -4.4394    1.6829 C.2       1 <0>         0.0000
      7 C7          0.0712   -5.4192   -1.6784 C.3       1 <0>         0.0000
      8 C8         -2.9249    0.0065   -0.3653 C.3       1 <0>         0.0000
      9 C9         -0.5651    0.5971    0.2653 C.3       1 <0>         0.0000
     10 C10        -2.4764    1.6298    1.4451 C.3       1 <0>         0.0000
     11 C11        -0.2539   -5.6470   -0.2175 C.3       1 <0>         0.0000
     12 N1         -2.3302   -0.6225    3.0368 N.ar      1 <0>         0.0000
     13 N2         -1.9788    0.3467    0.7827 N.4       1 <0>         0.0000
     14 O1         -0.9821   -5.4508    2.3946 O.2       1 <0>         0.0000
     15 O2         -0.7035   -4.4155    0.3576 O.3       1 <0>         0.0000
     16 H1         -1.8576   -3.7759    4.1800 H         1 <0>         0.0000
     17 H2         -1.2175   -2.1722    0.2305 H         1 <0>         0.0000
     18 H3         -2.5973   -1.5029    4.8824 H         1 <0>         0.0000
     19 H4         -0.8122   -5.0801   -2.2265 H         1 <0>         0.0000
     20 H5          0.8628   -4.6703   -1.7855 H         1 <0>         0.0000
     21 H6          0.4408   -6.3411   -2.1397 H         1 <0>         0.0000
     22 H7         -2.9377    0.8562   -1.0504 H         1 <0>         0.0000
     23 H8         -2.5435   -0.8897   -0.8583 H         1 <0>         0.0000
     24 H9         -3.9151   -0.1702    0.0591 H         1 <0>         0.0000
     25 H10        -0.6074    1.4394   -0.4276 H         1 <0>         0.0000
     26 H11         0.0692    0.8263    1.1237 H         1 <0>         0.0000
     27 H12        -0.2287   -0.3102   -0.2401 H         1 <0>         0.0000
     28 H13        -2.4720    2.4185    0.6906 H         1 <0>         0.0000
     29 H14        -3.4871    1.4451    1.8141 H         1 <0>         0.0000
     30 H15        -1.7964    1.8677    2.2653 H         1 <0>         0.0000
     31 H16         0.6338   -5.9859    0.3248 H         1 <0>         0.0000
     32 H17        -1.0455   -6.3949   -0.1124 H         1 <0>         0.0000
@<TRIPOS>BOND
     1    1    3 ar
     2    1    4 ar
     3    1   16 1
     4    2    4 ar
     5    2    5 ar
     6    2   17 1
     7    3   12 ar
     8    3   18 1
     9    4    6 1
    10    5   12 ar
    11    5   13 1
    12    6   14 2
    13    6   15 1
    14    7   11 1
    15    7   19 1
    16    7   20 1
    17    7   21 1
    18    8   13 1
    19    8   22 1
    20    8   23 1
    21    8   24 1
    22    9   13 1
    23    9   25 1
    24    9   26 1
    25    9   27 1
    26   10   13 1
    27   10   28 1
    28   10   29 1
    29   10   30 1
    30   11   15 1
    31   11   31 1
    32   11   32 1
