@<TRIPOS>MOLECULE
*****
   27    27     0     0     0
SMALL
NO_CHARGES

@<TRIPOS>ATOM
      1 C1          6.9134   -0.1823   -3.3206 C.ar      1 <0>         0.0000
      2 C2          7.7210   -0.7155   -1.1069 C.ar      1 <0>         0.0000
      3 C3          5.6687    0.1507   -2.7863 C.ar      1 <0>         0.0000
      4 C4          6.4763   -0.3824   -0.5726 C.ar      1 <0>         0.0000
      5 C5          7.9395   -0.6155   -2.4809 C.ar      1 <0>         0.0000
      6 C6          5.4502    0.0507   -1.4123 C.ar      1 <0>         0.0000
      7 C7          3.0550    0.8374   -1.5563 C.2       1 <0>         0.0000
      8 C8          0.5425    0.8645   -1.5006 C.3       1 <0>         0.0000
      9 C9          1.7816   -0.3269    0.2760 C.3       1 <0>         0.0000
     10 C10         9.2703   -0.9716   -3.0523 C.3       1 <0>         0.0000
     11 N1          4.1859    0.3893   -0.8691 N.am      1 <0>         0.0000
     12 N2          1.8321    0.4707   -0.9475 N.am      1 <0>         0.0000
     13 O1          3.0909    1.5106   -2.5886 O.2       1 <0>         0.0000
     14 F1          9.3404   -0.8261   -4.4087 F         1 <0>         0.0000
     15 F2         10.2965   -0.2167   -2.5599 F         1 <0>         0.0000
     16 F3          9.6181   -2.2681   -2.8049 F         1 <0>         0.0000
     17 H1          7.0741   -0.1035   -4.3926 H         1 <0>         0.0000
     18 H2          8.5147   -1.0528   -0.4454 H         1 <0>         0.0000
     19 H3          4.8763    0.4875   -3.4500 H         1 <0>         0.0000
     20 H4          6.3166   -0.4651    0.4996 H         1 <0>         0.0000
     21 H5          0.1884    0.1067   -2.2043 H         1 <0>         0.0000
     22 H6          0.6324    1.8187   -2.0267 H         1 <0>         0.0000
     23 H7         -0.1945    0.9735   -0.7004 H         1 <0>         0.0000
     24 H8          1.7904    0.3273    1.1516 H         1 <0>         0.0000
     25 H9          2.6455   -0.9952    0.3274 H         1 <0>         0.0000
     26 H10         0.8701   -0.9303    0.2965 H         1 <0>         0.0000
     27 H11         4.0908    0.2952    0.1370 H         1 <0>         0.0000
@<TRIPOS>BOND
     1    1    3 ar
     2    1    5 ar
     3    1   17 1
     4    2    4 ar
     5    2    5 ar
     6    2   18 1
     7    3    6 ar
     8    3   19 1
     9    4    6 ar
    10    4   20 1
    11    5   10 1
    12    6   11 1
    13    7   11 am
    14    7   12 am
    15    7   13 2
    16    8   12 1
    17    8   21 1
    18    8   22 1
    19    8   23 1
    20    9   12 1
    21    9   24 1
    22    9   25 1
    23    9   26 1
    24   10   14 1
    25   10   15 1
    26   10   16 1
    27   11   27 1
