@<TRIPOS>MOLECULE
*****
   29    29     0     0     0
SMALL
NO_CHARGES

@<TRIPOS>ATOM
      1 C1          1.8851   -1.0363   -0.1124 C.ar      1 <0>         0.0000
      2 C2          2.8783   -1.6520    2.0022 C.ar      1 <0>         0.0000
      3 C3          0.8066   -0.4630    0.5610 C.ar      1 <0>         0.0000
      4 C4          1.7997   -1.0786    2.6757 C.ar      1 <0>         0.0000
      5 C5          2.9210   -1.6309    0.6081 C.ar      1 <0>         0.0000
      6 C6          0.7638   -0.4841    1.9551 C.ar      1 <0>         0.0000
      7 C7          5.1303   -2.8484    0.4762 C.2       1 <0>         0.0000
      8 C8          7.2266   -3.9838   -0.2757 C.3       1 <0>         0.0000
      9 C9         -1.4072    0.7172    1.8956 C.3       1 <0>         0.0000
     10 C10        -0.3875    0.0676    4.0835 C.3       1 <0>         0.0000
     11 N1          3.9989   -2.2056   -0.0658 N.am      1 <0>         0.0000
     12 N2          5.9867   -3.2899   -0.5376 N.am      1 <0>         0.0000
     13 N3         -0.3266    0.0965    2.6356 N.pl3     1 <0>         0.0000
     14 O1          5.3625   -3.0149    1.6712 O.2       1 <0>         0.0000
     15 H1          1.9079   -1.0144   -1.1992 H         1 <0>         0.0000
     16 H2          3.6801   -2.1125    2.5736 H         1 <0>         0.0000
     17 H3          0.0045   -0.0025   -0.0102 H         1 <0>         0.0000
     18 H4          1.7758   -1.1010    3.7619 H         1 <0>         0.0000
     19 H5          8.0456   -3.2663   -0.1791 H         1 <0>         0.0000
     20 H6          7.4554   -4.6710   -1.0948 H         1 <0>         0.0000
     21 H7          7.1501   -4.5574    0.6520 H         1 <0>         0.0000
     22 H8         -2.1582    1.1100    2.5860 H         1 <0>         0.0000
     23 H9         -1.8831   -0.0141    1.2368 H         1 <0>         0.0000
     24 H10        -1.0242    1.5405    1.2866 H         1 <0>         0.0000
     25 H11        -1.2983    0.5621    4.4311 H         1 <0>         0.0000
     26 H12         0.4775    0.5839    4.5086 H         1 <0>         0.0000
     27 H13        -0.3896   -0.9656    4.4412 H         1 <0>         0.0000
     28 H14         3.9779   -2.1624   -1.0902 H         1 <0>         0.0000
     29 H15         5.7249   -3.1146   -1.5025 H         1 <0>         0.0000
@<TRIPOS>BOND
     1    1    3 ar
     2    1    5 ar
     3    1   15 1
     4    2    4 ar
     5    2    5 ar
     6    2   16 1
     7    3    6 ar
     8    3   17 1
     9    4    6 ar
    10    4   18 1
    11    5   11 1
    12    6   13 1
    13    7   11 am
    14    7   12 am
    15    7   14 2
    16    8   12 1
    17    8   19 1
    18    8   20 1
    19    8   21 1
    20    9   13 1
    21    9   22 1
    22    9   23 1
    23    9   24 1
    24   10   13 1
    25   10   25 1
    26   10   26 1
    27   10   27 1
    28   11   28 1
    29   12   29 1
